@<TRIPOS>MOLECULE
./../dock_file/temp/dfe1596b71ed1c82fb2a17eeeb2cf502/Camostat_Ligand_CID_2536:hmTMPRSS4:20230414002928/Camostat_Ligand_CID_2536:hmTMPRSS4_out_2.pdbqt
 33 34 0 0 0
SMALL
GASTEIGER

@<TRIPOS>ATOM
      1  O         -5.2280    3.1190   11.5160 O.3     1  LIG1       -0.2750
      2  C         -6.2150    2.3770   12.0870 C.ar    1  LIG1        0.0790
      3  C         -5.9040    1.1790   12.7320 C.ar    1  LIG1        0.0380
      4  C         -6.9160    0.4190   13.3170 C.ar    1  LIG1        0.0100
      5  C         -8.2400    0.8560   13.2590 C.ar    1  LIG1       -0.0490
      6  C         -8.5500    2.0540   12.6140 C.ar    1  LIG1        0.0100
      7  C         -7.5380    2.8140   12.0290 C.ar    1  LIG1        0.0380
      8  C         -9.3330    0.0350   13.8910 C.3     1  LIG1        0.1490
      9  C         -9.8020    0.5960   15.2130 C.2     1  LIG1        0.2630
     10  O         -9.0860    0.8340   16.1760 O.2     1  LIG1       -0.2650
     11  O        -11.1610    0.7990   15.1700 O.3     1  LIG1       -0.3120
     12  C        -11.8310    0.2980   14.0320 C.3     1  LIG1        0.2810
     13  C        -12.9290   -0.6510   14.4650 C.2     1  LIG1        0.2430
     14  O        -13.7490   -0.2670   15.3030 O.2     1  LIG1       -0.2710
     15  N        -12.9530   -1.9160   13.8770 N.am    1  LIG1       -0.3590
     16  C        -12.0100   -2.4020   12.8720 C.3     1  LIG1        0.1520
     17  C        -13.9960   -2.8620   14.2540 C.3     1  LIG1        0.1520
     18  C         -4.2780    3.6050   12.4190 C.2     1  LIG1        0.2980
     19  O         -3.6620    2.9350   13.2340 O.2     1  LIG1       -0.2590
     20  C         -4.1110    5.0740   12.2820 C.ar    1  LIG1        0.0400
     21  C         -2.8400    5.6180   12.1040 C.ar    1  LIG1        0.0200
     22  C         -2.6830    6.9980   11.9750 C.ar    1  LIG1        0.0330
     23  C         -3.7970    7.8340   12.0230 C.ar    1  LIG1        0.0750
     24  C         -5.0700    7.2910   12.2010 C.ar    1  LIG1        0.0330
     25  C         -5.2270    5.9110   12.3300 C.ar    1  LIG1        0.0200
     26  N         -3.6400    9.2180   11.8930 N.pl3   1  LIG1       -0.0660
     27  C         -3.4270    9.9360   12.9700 C.cat   1  LIG1        0.6920
     28  N         -3.3330    9.4840   14.2690 N.pl3   1  LIG1       -0.2330
     29  N         -3.2660   11.2990   12.8860 N.pl3   1  LIG1       -0.2330
     30  H         -3.4310    8.5250   14.4650 H       1  LIG1        0.1740
     31  H         -3.1700   10.1230   15.0010 H       1  LIG1        0.1740
     32  H         -3.3110   11.7460   12.0100 H       1  LIG1        0.1740
     33  H         -3.1060   11.8260   13.7020 H       1  LIG1        0.1740
@<TRIPOS>BOND
     1     1     2    1
     2     1    18    1
     3    26    23    1
     4    26    27    2
     5    22    23   ar
     6    22    21   ar
     7    32    29    1
     8    23    24   ar
     9     7     2   ar
    10     7     6   ar
    11     2     3   ar
    12    21    20   ar
    13    24    25   ar
    14    20    25   ar
    15    20    18    1
    16    18    19    2
    17     6     5   ar
    18     3     4   ar
    19    16    15    1
    20    29    27    1
    21    29    33    1
    22    27    28    1
    23     5     4   ar
    24     5     8    1
    25    15    17    1
    26    15    13   am
    27     8     9    1
    28    12    13    1
    29    12    11    1
    30    28    30    1
    31    28    31    1
    32    13    14    2
    33    11     9    1
    34     9    10    2
@<TRIPOS>MOLECULE
./../dock_file/temp/dfe1596b71ed1c82fb2a17eeeb2cf502/Camostat_Ligand_CID_2536:hmTMPRSS4:20230414002928/Camostat_Ligand_CID_2536:hmTMPRSS4_out_2.pdbqt
 33 34 0 0 0
SMALL
GASTEIGER

@<TRIPOS>ATOM
      1  O         -5.1430    1.4520   11.5330 O.3     1  LIG1       -0.2750
      2  C         -6.1570    1.1030   12.3710 C.ar    1  LIG1        0.0790
      3  C         -5.9800    0.0640   13.2850 C.ar    1  LIG1        0.0380
      4  C         -7.0190   -0.2930   14.1440 C.ar    1  LIG1        0.0100
      5  C         -8.2340    0.3890   14.0910 C.ar    1  LIG1       -0.0490
      6  C         -8.4110    1.4280   13.1770 C.ar    1  LIG1        0.0100
      7  C         -7.3720    1.7860   12.3180 C.ar    1  LIG1        0.0380
      8  C         -9.3570    0.0030   15.0190 C.3     1  LIG1        0.1490
      9  C        -10.7020   -0.0370   14.3320 C.2     1  LIG1        0.2630
     10  O        -10.9590   -0.6620   13.3130 O.2     1  LIG1       -0.2650
     11  O        -11.5970    0.7390   15.0300 O.3     1  LIG1       -0.3120
     12  C        -12.3760    1.6350   14.2650 C.3     1  LIG1        0.2810
     13  C        -11.6060    2.9210   14.0470 C.2     1  LIG1        0.2430
     14  O        -11.1970    3.5420   15.0320 O.2     1  LIG1       -0.2710
     15  N        -11.3960    3.3280   12.7290 N.am    1  LIG1       -0.3590
     16  C        -11.8520    2.6130   11.5390 C.3     1  LIG1        0.1520
     17  C        -10.6540    4.5540   12.4680 C.3     1  LIG1        0.1520
     18  C         -5.3970    2.5940   10.7690 C.2     1  LIG1        0.2980
     19  O         -5.8720    2.6070    9.6430 O.2     1  LIG1       -0.2590
     20  C         -4.9970    3.8250   11.4960 C.ar    1  LIG1        0.0400
     21  C         -5.8400    4.9360   11.5030 C.ar    1  LIG1        0.0200
     22  C         -5.4640    6.0920   12.1870 C.ar    1  LIG1        0.0330
     23  C         -4.2450    6.1380   12.8630 C.ar    1  LIG1        0.0750
     24  C         -3.4010    5.0270   12.8560 C.ar    1  LIG1        0.0330
     25  C         -3.7770    3.8700   12.1720 C.ar    1  LIG1        0.0200
     26  N         -3.8680    7.2980   13.5490 N.pl3   1  LIG1       -0.0660
     27  C         -3.2300    8.2400   12.8970 C.cat   1  LIG1        0.6920
     28  N         -2.8670    8.2370   11.5680 N.pl3   1  LIG1       -0.2330
     29  N         -2.8430    9.3950   13.5340 N.pl3   1  LIG1       -0.2330
     30  H         -3.0870    7.4640   11.0000 H       1  LIG1        0.1740
     31  H         -2.3860    9.0080   11.1870 H       1  LIG1        0.1740
     32  H         -3.0440    9.5220   14.4890 H       1  LIG1        0.1740
     33  H         -2.3650   10.0960   13.0340 H       1  LIG1        0.1740
@<TRIPOS>BOND
     1    19    18    2
     2    18    20    1
     3    18     1    1
     4    30    28    1
     5    31    28    1
     6    20    21   ar
     7    20    25   ar
     8    21    22   ar
     9     1     2    1
    10    16    15    1
    11    28    27    1
    12    25    24   ar
    13    22    23   ar
    14     7     2   ar
    15     7     6   ar
    16     2     3   ar
    17    17    15    1
    18    15    13   am
    19    24    23   ar
    20    23    26    1
    21    27    29    1
    22    27    26    2
    23    33    29    1
    24     6     5   ar
    25     3     4   ar
    26    10     9    2
    27    29    32    1
    28    13    12    1
    29    13    14    2
    30     5     4   ar
    31     5     8    1
    32    12    11    1
    33     9     8    1
    34     9    11    1
@<TRIPOS>MOLECULE
./../dock_file/temp/dfe1596b71ed1c82fb2a17eeeb2cf502/Camostat_Ligand_CID_2536:hmTMPRSS4:20230414002928/Camostat_Ligand_CID_2536:hmTMPRSS4_out_2.pdbqt
 33 34 0 0 0
SMALL
GASTEIGER

@<TRIPOS>ATOM
      1  O         -5.2720    3.1900   11.6350 O.3     1  LIG1       -0.2750
      2  C         -6.1010    2.3040   12.2520 C.ar    1  LIG1        0.0790
      3  C         -7.4760    2.5400   12.2830 C.ar    1  LIG1        0.0380
      4  C         -8.3240    1.6330   12.9160 C.ar    1  LIG1        0.0100
      5  C         -7.7990    0.4890   13.5180 C.ar    1  LIG1       -0.0490
      6  C         -6.4240    0.2530   13.4870 C.ar    1  LIG1        0.0100
      7  C         -5.5750    1.1610   12.8540 C.ar    1  LIG1        0.0380
      8  C         -8.7160   -0.4920   14.2020 C.3     1  LIG1        0.1490
      9  C         -9.7950    0.1810   15.0190 C.2     1  LIG1        0.2630
     10  O         -9.6080    0.8490   16.0260 O.2     1  LIG1       -0.2650
     11  O        -11.0220   -0.0710   14.4540 O.3     1  LIG1       -0.3120
     12  C        -11.9930    0.9450   14.5920 C.3     1  LIG1        0.2810
     13  C        -11.9830    1.8300   13.3630 C.2     1  LIG1        0.2430
     14  O        -12.2990    1.3390   12.2750 O.2     1  LIG1       -0.2710
     15  N        -11.6190    3.1660   13.5360 N.am    1  LIG1       -0.3590
     16  C        -11.2530    3.7860   14.8080 C.3     1  LIG1        0.1520
     17  C        -11.6030    4.0580   12.3850 C.3     1  LIG1        0.1520
     18  C         -4.2630    3.7010   12.4550 C.2     1  LIG1        0.2980
     19  O         -3.5470    3.0460   13.1960 O.2     1  LIG1       -0.2590
     20  C         -4.1690    5.1780   12.3300 C.ar    1  LIG1        0.0400
     21  C         -5.3260    5.9550   12.3640 C.ar    1  LIG1        0.0200
     22  C         -5.2380    7.3420   12.2480 C.ar    1  LIG1        0.0330
     23  C         -3.9930    7.9520   12.0970 C.ar    1  LIG1        0.0750
     24  C         -2.8350    7.1750   12.0630 C.ar    1  LIG1        0.0330
     25  C         -2.9230    5.7880   12.1790 C.ar    1  LIG1        0.0200
     26  N         -3.9050    9.3440   11.9800 N.pl3   1  LIG1       -0.0660
     27  C         -3.6240   10.0530   13.0480 C.cat   1  LIG1        0.6920
     28  N         -3.3960    9.5850   14.3240 N.pl3   1  LIG1       -0.2330
     29  N         -3.5280   11.4220   12.9750 N.pl3   1  LIG1       -0.2330
     30  H         -3.4360    8.6200   14.5090 H       1  LIG1        0.1740
     31  H         -3.1930   10.2190   15.0500 H       1  LIG1        0.1740
     32  H         -3.6700   11.8810   12.1160 H       1  LIG1        0.1740
     33  H         -3.3170   11.9440   13.7840 H       1  LIG1        0.1740
@<TRIPOS>BOND
     1     1     2    1
     2     1    18    1
     3    26    23    1
     4    26    27    2
     5    24    23   ar
     6    24    25   ar
     7    23    22   ar
     8    32    29    1
     9    25    20   ar
    10    22    21   ar
    11     2     3   ar
    12     2     7   ar
    13    14    13    2
    14     3     4   ar
    15    20    21   ar
    16    20    18    1
    17    17    15    1
    18    18    19    2
    19     7     6   ar
    20     4     5   ar
    21    29    27    1
    22    29    33    1
    23    27    28    1
    24    13    15   am
    25    13    12    1
    26     6     5   ar
    27     5     8    1
    28    15    16    1
    29     8     9    1
    30    28    30    1
    31    28    31    1
    32    11    12    1
    33    11     9    1
    34     9    10    2
@<TRIPOS>MOLECULE
./../dock_file/temp/dfe1596b71ed1c82fb2a17eeeb2cf502/Camostat_Ligand_CID_2536:hmTMPRSS4:20230414002928/Camostat_Ligand_CID_2536:hmTMPRSS4_out_2.pdbqt
 33 34 0 0 0
SMALL
GASTEIGER

@<TRIPOS>ATOM
      1  O         -9.6570    0.2350   14.9110 O.3     1  LIG1       -0.2750
      2  C         -8.5800    0.5130   14.1270 C.ar    1  LIG1        0.0790
      3  C         -8.6330    1.5690   13.2160 C.ar    1  LIG1        0.0380
      4  C         -7.5290    1.8530   12.4130 C.ar    1  LIG1        0.0100
      5  C         -6.3710    1.0820   12.5200 C.ar    1  LIG1       -0.0490
      6  C         -6.3190    0.0260   13.4300 C.ar    1  LIG1        0.0100
      7  C         -7.4230   -0.2590   14.2340 C.ar    1  LIG1        0.0380
      8  C         -5.1780    1.3880   11.6520 C.3     1  LIG1        0.1490
      9  C         -4.3830    2.5760   12.1420 C.2     1  LIG1        0.2630
     10  O         -3.8750    2.6800   13.2500 O.2     1  LIG1       -0.2650
     11  O         -4.3150    3.5240   11.1490 O.3     1  LIG1       -0.3120
     12  C         -4.9900    4.7390   11.3990 C.3     1  LIG1        0.2810
     13  C         -3.9940    5.7950   11.8310 C.2     1  LIG1        0.2430
     14  O         -2.8090    5.6570   11.5150 O.2     1  LIG1       -0.2710
     15  N         -4.4830    6.8790   12.5600 N.am    1  LIG1       -0.3590
     16  C         -5.8790    7.0850   12.9390 C.3     1  LIG1        0.1520
     17  C         -3.5640    7.9260   12.9900 C.3     1  LIG1        0.1520
     18  C        -10.7440   -0.3110   14.2230 C.2     1  LIG1        0.2980
     19  O        -10.7040   -1.2860   13.4880 O.2     1  LIG1       -0.2590
     20  C        -11.9850    0.4620   14.4830 C.ar    1  LIG1        0.0400
     21  C        -11.9960    1.8440   14.3020 C.ar    1  LIG1        0.0200
     22  C        -13.1630    2.5700   14.5460 C.ar    1  LIG1        0.0330
     23  C        -14.3170    1.9130   14.9710 C.ar    1  LIG1        0.0750
     24  C        -14.3060    0.5300   15.1520 C.ar    1  LIG1        0.0330
     25  C        -13.1400   -0.1960   14.9090 C.ar    1  LIG1        0.0200
     26  N        -15.4860    2.6410   15.2160 N.pl3   1  LIG1       -0.0660
     27  C        -16.3280    2.8380   14.2290 C.cat   1  LIG1        0.6920
     28  N        -16.2040    2.4040   12.9270 N.pl3   1  LIG1       -0.2330
     29  N        -17.4890    3.5480   14.4280 N.pl3   1  LIG1       -0.2330
     30  H        -15.4150    1.8840   12.6550 H       1  LIG1        0.1740
     31  H        -16.9060    2.6160   12.2690 H       1  LIG1        0.1740
     32  H        -17.6960    3.9140   15.3180 H       1  LIG1        0.1740
     33  H        -18.1130    3.6900   13.6790 H       1  LIG1        0.1740
@<TRIPOS>BOND
     1    11    12    1
     2    11     9    1
     3    12    13    1
     4    14    13    2
     5     8     9    1
     6     8     5    1
     7    13    15   am
     8     9    10    2
     9    31    28    1
    10     4     5   ar
    11     4     3   ar
    12     5     6   ar
    13    15    16    1
    14    15    17    1
    15    30    28    1
    16    28    27    1
    17     3     2   ar
    18     6     7   ar
    19    19    18    2
    20    33    29    1
    21     2     7   ar
    22     2     1    1
    23    18    20    1
    24    18     1    1
    25    27    29    1
    26    27    26    2
    27    21    20   ar
    28    21    22   ar
    29    29    32    1
    30    20    25   ar
    31    22    23   ar
    32    25    24   ar
    33    23    24   ar
    34    23    26    1
@<TRIPOS>MOLECULE
./../dock_file/temp/dfe1596b71ed1c82fb2a17eeeb2cf502/Camostat_Ligand_CID_2536:hmTMPRSS4:20230414002928/Camostat_Ligand_CID_2536:hmTMPRSS4_out_2.pdbqt
 33 34 0 0 0
SMALL
GASTEIGER

@<TRIPOS>ATOM
      1  O         -6.1220    2.4360   11.1630 O.3     1  LIG1       -0.2750
      2  C         -6.9600    1.9300   12.1090 C.ar    1  LIG1        0.0790
      3  C         -6.5440    0.8710   12.9160 C.ar    1  LIG1        0.0380
      4  C         -7.4030    0.3540   13.8850 C.ar    1  LIG1        0.0100
      5  C         -8.6780    0.8950   14.0480 C.ar    1  LIG1       -0.0490
      6  C         -9.0940    1.9540   13.2400 C.ar    1  LIG1        0.0100
      7  C         -8.2350    2.4720   12.2710 C.ar    1  LIG1        0.0380
      8  C         -9.6070    0.3360   15.0950 C.3     1  LIG1        0.1490
      9  C        -10.9800    0.0160   14.5530 C.2     1  LIG1        0.2630
     10  O        -12.0180    0.5760   14.8770 O.2     1  LIG1       -0.2650
     11  O        -10.8860   -1.0050   13.6370 O.3     1  LIG1       -0.3120
     12  C        -12.0940   -1.6510   13.2960 C.3     1  LIG1        0.2810
     13  C        -12.1030   -1.9650   11.8140 C.2     1  LIG1        0.2430
     14  O        -12.3220   -1.0510   11.0150 O.2     1  LIG1       -0.2710
     15  N        -11.8500   -3.2850   11.4360 N.am    1  LIG1       -0.3590
     16  C        -11.5720   -4.3900   12.3500 C.3     1  LIG1        0.1520
     17  C        -11.8400   -3.6340   10.0210 C.3     1  LIG1        0.1520
     18  C         -4.8080    2.6220   11.6000 C.2     1  LIG1        0.2980
     19  O         -3.9420    1.7620   11.6420 O.2     1  LIG1       -0.2590
     20  C         -4.5830    4.0240   12.0360 C.ar    1  LIG1        0.0400
     21  C         -3.3980    4.3710   12.6820 C.ar    1  LIG1        0.0200
     22  C         -3.1860    5.6880   13.0910 C.ar    1  LIG1        0.0330
     23  C         -4.1610    6.6570   12.8560 C.ar    1  LIG1        0.0750
     24  C         -5.3480    6.3100   12.2100 C.ar    1  LIG1        0.0330
     25  C         -5.5590    4.9930   11.8000 C.ar    1  LIG1        0.0200
     26  N         -3.9490    7.9780   13.2660 N.pl3   1  LIG1       -0.0660
     27  C         -3.3810    8.8170   12.4330 C.cat   1  LIG1        0.6920
     28  N         -2.9470    8.5560   11.1520 N.pl3   1  LIG1       -0.2330
     29  N         -3.1550   10.1230   12.7980 N.pl3   1  LIG1       -0.2330
     30  H         -3.0510    7.6550   10.7710 H       1  LIG1        0.1740
     31  H         -2.5320    9.2720   10.6180 H       1  LIG1        0.1740
     32  H         -3.4210   10.4380   13.6920 H       1  LIG1        0.1740
     33  H         -2.7280   10.7440   12.1640 H       1  LIG1        0.1740
@<TRIPOS>BOND
     1    17    15    1
     2    31    28    1
     3    30    28    1
     4    14    13    2
     5    28    27    1
     6     1    18    1
     7     1     2    1
     8    15    13   am
     9    15    16    1
    10    18    19    2
    11    18    20    1
    12    25    20   ar
    13    25    24   ar
    14    13    12    1
    15    20    21   ar
    16     2     7   ar
    17     2     3   ar
    18    33    29    1
    19    24    23   ar
    20     7     6   ar
    21    27    29    1
    22    27    26    2
    23    21    22   ar
    24    29    32    1
    25    23    22   ar
    26    23    26    1
    27     3     4   ar
    28     6     5   ar
    29    12    11    1
    30    11     9    1
    31     4     5   ar
    32     5     8    1
    33     9    10    2
    34     9     8    1
@<TRIPOS>MOLECULE
./../dock_file/temp/dfe1596b71ed1c82fb2a17eeeb2cf502/Camostat_Ligand_CID_2536:hmTMPRSS4:20230414002928/Camostat_Ligand_CID_2536:hmTMPRSS4_out_2.pdbqt
 33 34 0 0 0
SMALL
GASTEIGER

@<TRIPOS>ATOM
      1  O         -9.5050    0.1340   13.8700 O.3     1  LIG1       -0.2750
      2  C         -8.2980    0.6190   13.4700 C.ar    1  LIG1        0.0790
      3  C         -7.1220   -0.0090   13.8820 C.ar    1  LIG1        0.0380
      4  C         -5.8850    0.4880   13.4720 C.ar    1  LIG1        0.0100
      5  C         -5.8240    1.6130   12.6490 C.ar    1  LIG1       -0.0490
      6  C         -7.0000    2.2400   12.2370 C.ar    1  LIG1        0.0100
      7  C         -8.2370    1.7430   12.6470 C.ar    1  LIG1        0.0380
      8  C         -4.4880    2.1500   12.2060 C.3     1  LIG1        0.1490
      9  C         -4.5530    2.8680   10.8780 C.2     1  LIG1        0.2630
     10  O         -4.7290    2.3350    9.7920 O.2     1  LIG1       -0.2650
     11  O         -4.3830    4.2180   11.0770 O.3     1  LIG1       -0.3120
     12  C         -3.6560    4.5930   12.2280 C.3     1  LIG1        0.2810
     13  C         -3.8130    6.0800   12.4670 C.2     1  LIG1        0.2430
     14  O         -4.7940    6.4790   13.1000 O.2     1  LIG1       -0.2710
     15  N         -2.8210    6.9200   11.9600 N.am    1  LIG1       -0.3590
     16  C         -1.6380    6.4850   11.2210 C.3     1  LIG1        0.1520
     17  C         -2.9230    8.3580   12.1730 C.3     1  LIG1        0.1520
     18  C         -9.9780    0.6840   15.0640 C.2     1  LIG1        0.2980
     19  O         -9.5320    0.4590   16.1780 O.2     1  LIG1       -0.2590
     20  C        -11.1310    1.5870   14.8170 C.ar    1  LIG1        0.0400
     21  C        -12.4100    1.0560   14.6560 C.ar    1  LIG1        0.0200
     22  C        -13.4930    1.9050   14.4250 C.ar    1  LIG1        0.0330
     23  C        -13.2970    3.2830   14.3530 C.ar    1  LIG1        0.0750
     24  C        -12.0170    3.8150   14.5130 C.ar    1  LIG1        0.0330
     25  C        -10.9340    2.9660   14.7450 C.ar    1  LIG1        0.0200
     26  N        -14.3830    4.1340   14.1210 N.pl3   1  LIG1       -0.0660
     27  C        -14.9550    4.7240   15.1430 C.cat   1  LIG1        0.6920
     28  N        -14.6110    4.6110   16.4720 N.pl3   1  LIG1       -0.2330
     29  N        -16.0250    5.5680   14.9570 N.pl3   1  LIG1       -0.2330
     30  H        -13.8600    4.0340   16.7390 H       1  LIG1        0.1740
     31  H        -15.1190    5.1060   17.1560 H       1  LIG1        0.1740
     32  H        -16.3690    5.7350   14.0510 H       1  LIG1        0.1740
     33  H        -16.4460    6.0060   15.7320 H       1  LIG1        0.1740
@<TRIPOS>BOND
     1    10     9    2
     2     9    11    1
     3     9     8    1
     4    11    12    1
     5    16    15    1
     6    15    17    1
     7    15    13   am
     8     8     5    1
     9    12    13    1
    10     6     7   ar
    11     6     5   ar
    12    13    14    2
    13     7     2   ar
    14     5     4   ar
    15     2     1    1
    16     2     3   ar
    17     4     3   ar
    18     1    18    1
    19    32    29    1
    20    26    23    1
    21    26    27    2
    22    23    22   ar
    23    23    24   ar
    24    22    21   ar
    25    24    25   ar
    26    21    20   ar
    27    25    20   ar
    28    20    18    1
    29    29    27    1
    30    29    33    1
    31    18    19    2
    32    27    28    1
    33    28    30    1
    34    28    31    1
@<TRIPOS>MOLECULE
./../dock_file/temp/dfe1596b71ed1c82fb2a17eeeb2cf502/Camostat_Ligand_CID_2536:hmTMPRSS4:20230414002928/Camostat_Ligand_CID_2536:hmTMPRSS4_out_2.pdbqt
 33 34 0 0 0
SMALL
GASTEIGER

@<TRIPOS>ATOM
      1  O         -4.1460    2.3240   12.1090 O.3     1  LIG1       -0.2750
      2  C         -4.1220    3.6720   12.2970 C.ar    1  LIG1        0.0790
      3  C         -5.0410    4.4860   11.6350 C.ar    1  LIG1        0.0380
      4  C         -5.0170    5.8660   11.8280 C.ar    1  LIG1        0.0100
      5  C         -4.0740    6.4340   12.6860 C.ar    1  LIG1       -0.0490
      6  C         -3.1550    5.6200   13.3490 C.ar    1  LIG1        0.0100
      7  C         -3.1800    4.2390   13.1550 C.ar    1  LIG1        0.0380
      8  C         -4.0470    7.9260   12.8950 C.3     1  LIG1        0.1490
      9  C         -3.1980    8.6490   11.8760 C.2     1  LIG1        0.2630
     10  O         -2.5900    8.1190   10.9570 O.2     1  LIG1       -0.2650
     11  O         -3.2130    9.9980   12.1400 O.3     1  LIG1       -0.3120
     12  C         -3.4450   10.8470   11.0360 C.3     1  LIG1        0.2810
     13  C         -2.2850   11.8090   10.8820 C.2     1  LIG1        0.2430
     14  O         -2.0920   12.6520   11.7620 O.2     1  LIG1       -0.2710
     15  N         -1.4890   11.6780    9.7430 N.am    1  LIG1       -0.3590
     16  C         -1.6770   10.6850    8.6880 C.3     1  LIG1        0.1520
     17  C         -0.3560   12.5750    9.5540 C.3     1  LIG1        0.1520
     18  C         -5.2400    1.8660   11.3700 C.2     1  LIG1        0.2980
     19  O         -5.2610    1.6930   10.1610 O.2     1  LIG1       -0.2590
     20  C         -6.4130    1.6230   12.2470 C.ar    1  LIG1        0.0400
     21  C         -7.6090    2.3010   12.0150 C.ar    1  LIG1        0.0200
     22  C         -8.7120    2.0710   12.8380 C.ar    1  LIG1        0.0330
     23  C         -8.6180    1.1650   13.8940 C.ar    1  LIG1        0.0750
     24  C         -7.4210    0.4870   14.1270 C.ar    1  LIG1        0.0330
     25  C         -6.3190    0.7160   13.3030 C.ar    1  LIG1        0.0200
     26  N         -9.7240    0.9350   14.7190 N.pl3   1  LIG1       -0.0660
     27  C        -10.7340    0.2450   14.2480 C.cat   1  LIG1        0.6920
     28  N        -10.8540   -0.3060   12.9900 N.pl3   1  LIG1       -0.2330
     29  N        -11.8400   -0.0030   15.0270 N.pl3   1  LIG1       -0.2330
     30  H        -10.1290   -0.1990   12.3350 H       1  LIG1        0.1740
     31  H        -11.6670   -0.8060   12.7480 H       1  LIG1        0.1740
     32  H        -11.8790    0.3380   15.9490 H       1  LIG1        0.1740
     33  H        -12.5920   -0.5220   14.6610 H       1  LIG1        0.1740
@<TRIPOS>BOND
     1    16    15    1
     2    17    15    1
     3    15    13   am
     4    19    18    2
     5    13    12    1
     6    13    14    2
     7    10     9    2
     8    12    11    1
     9    18     1    1
    10    18    20    1
    11     3     4   ar
    12     3     2   ar
    13     4     5   ar
    14     9    11    1
    15     9     8    1
    16    21    20   ar
    17    21    22   ar
    18     1     2    1
    19    20    25   ar
    20     2     7   ar
    21    30    28    1
    22     5     8    1
    23     5     6   ar
    24    31    28    1
    25    22    23   ar
    26    28    27    1
    27     7     6   ar
    28    25    24   ar
    29    23    24   ar
    30    23    26    1
    31    27    26    2
    32    27    29    1
    33    33    29    1
    34    29    32    1
@<TRIPOS>MOLECULE
./../dock_file/temp/dfe1596b71ed1c82fb2a17eeeb2cf502/Camostat_Ligand_CID_2536:hmTMPRSS4:20230414002928/Camostat_Ligand_CID_2536:hmTMPRSS4_out_2.pdbqt
 33 34 0 0 0
SMALL
GASTEIGER

@<TRIPOS>ATOM
      1  O         -4.1250    2.9170   13.0040 O.3     1  LIG1       -0.2750
      2  C         -4.0460    4.2490   12.7350 C.ar    1  LIG1        0.0790
      3  C         -2.9040    4.9670   13.0920 C.ar    1  LIG1        0.0380
      4  C         -2.8240    6.3310   12.8160 C.ar    1  LIG1        0.0100
      5  C         -3.8840    6.9780   12.1810 C.ar    1  LIG1       -0.0490
      6  C         -5.0250    6.2600   11.8230 C.ar    1  LIG1        0.0100
      7  C         -5.1060    4.8950   12.1000 C.ar    1  LIG1        0.0380
      8  C         -3.7970    8.4530   11.8820 C.3     1  LIG1        0.1490
      9  C         -3.8210    9.3080   13.1270 C.2     1  LIG1        0.2630
     10  O         -2.8460    9.5990   13.8060 O.2     1  LIG1       -0.2650
     11  O         -5.1100    9.7130   13.3810 O.3     1  LIG1       -0.3120
     12  C         -5.6230   10.7250   12.5410 C.3     1  LIG1        0.2810
     13  C         -5.0280   12.0620   12.9320 C.2     1  LIG1        0.2430
     14  O         -5.3050   12.5350   14.0370 O.2     1  LIG1       -0.2710
     15  N         -4.1830   12.6820   12.0110 N.am    1  LIG1       -0.3590
     16  C         -3.8190   12.1470   10.7000 C.3     1  LIG1        0.1520
     17  C         -3.5790   13.9650   12.3450 C.3     1  LIG1        0.1520
     18  C         -4.7950    2.1730   12.0300 C.2     1  LIG1        0.2980
     19  O         -4.4240    2.0080   10.8780 O.2     1  LIG1       -0.2590
     20  C         -6.0560    1.6010   12.5670 C.ar    1  LIG1        0.0400
     21  C         -7.2850    2.0390   12.0760 C.ar    1  LIG1        0.0200
     22  C         -8.4700    1.5020   12.5800 C.ar    1  LIG1        0.0330
     23  C         -8.4250    0.5260   13.5750 C.ar    1  LIG1        0.0750
     24  C         -7.1960    0.0870   14.0670 C.ar    1  LIG1        0.0330
     25  C         -6.0110    0.6250   13.5630 C.ar    1  LIG1        0.0200
     26  N         -9.6130   -0.0130   14.0810 N.pl3   1  LIG1       -0.0660
     27  C        -10.4500    0.7760   14.7110 C.cat   1  LIG1        0.6920
     28  N        -10.3050    2.1260   14.9500 N.pl3   1  LIG1       -0.2330
     29  N        -11.6280    0.2860   15.2220 N.pl3   1  LIG1       -0.2330
     30  H         -9.5010    2.5980   14.6350 H       1  LIG1        0.1740
     31  H        -11.0050    2.6170   15.4390 H       1  LIG1        0.1740
     32  H        -11.8520   -0.6670   15.1170 H       1  LIG1        0.1740
     33  H        -12.2480    0.8890   15.6930 H       1  LIG1        0.1740
@<TRIPOS>BOND
     1    16    15    1
     2    19    18    2
     3     6     7   ar
     4     6     5   ar
     5     8     5    1
     6     8     9    1
     7    15    17    1
     8    15    13   am
     9    18    20    1
    10    18     1    1
    11    21    20   ar
    12    21    22   ar
    13     7     2   ar
    14     5     4   ar
    15    12    13    1
    16    12    11    1
    17    20    25   ar
    18    22    23   ar
    19     2     1    1
    20     2     3   ar
    21     4     3   ar
    22    13    14    2
    23     9    11    1
    24     9    10    2
    25    25    24   ar
    26    23    24   ar
    27    23    26    1
    28    26    27    2
    29    30    28    1
    30    27    28    1
    31    27    29    1
    32    28    31    1
    33    32    29    1
    34    29    33    1
@<TRIPOS>MOLECULE
./../dock_file/temp/dfe1596b71ed1c82fb2a17eeeb2cf502/Camostat_Ligand_CID_2536:hmTMPRSS4:20230414002928/Camostat_Ligand_CID_2536:hmTMPRSS4_out_2.pdbqt
 33 34 0 0 0
SMALL
GASTEIGER

@<TRIPOS>ATOM
      1  O         -4.3190    2.1780   12.8960 O.3     1  LIG1       -0.2750
      2  C         -4.0290    3.4770   12.6100 C.ar    1  LIG1        0.0790
      3  C         -3.2080    4.2130   13.4650 C.ar    1  LIG1        0.0380
      4  C         -2.9100    5.5430   13.1710 C.ar    1  LIG1        0.0100
      5  C         -3.4330    6.1380   12.0230 C.ar    1  LIG1       -0.0490
      6  C         -4.2540    5.4020   11.1680 C.ar    1  LIG1        0.0100
      7  C         -4.5510    4.0710   11.4620 C.ar    1  LIG1        0.0380
      8  C         -3.1120    7.5760   11.7060 C.3     1  LIG1        0.1490
      9  C         -3.6080    8.5370   12.7600 C.2     1  LIG1        0.2630
     10  O         -2.9010    9.2400   13.4680 O.2     1  LIG1       -0.2650
     11  O         -4.9820    8.5010   12.8040 O.3     1  LIG1       -0.3120
     12  C         -5.6560    9.1000   11.7170 C.3     1  LIG1        0.2810
     13  C         -7.1160    9.2970   12.0700 C.2     1  LIG1        0.2430
     14  O         -7.4450   10.3150   12.6850 O.2     1  LIG1       -0.2710
     15  N         -8.0140    8.3090   11.6660 N.am    1  LIG1       -0.3590
     16  C         -7.6650    7.0990   10.9240 C.3     1  LIG1        0.1520
     17  C         -9.4300    8.4590   11.9750 C.3     1  LIG1        0.1520
     18  C         -5.2800    1.6070   12.0590 C.2     1  LIG1        0.2980
     19  O         -5.1110    1.2900   10.8910 O.2     1  LIG1       -0.2590
     20  C         -6.5750    1.4380   12.7670 C.ar    1  LIG1        0.0400
     21  C         -7.7000    2.1420   12.3410 C.ar    1  LIG1        0.0200
     22  C         -8.9160    1.9830   13.0060 C.ar    1  LIG1        0.0330
     23  C         -9.0060    1.1200   14.0970 C.ar    1  LIG1        0.0750
     24  C         -7.8800    0.4150   14.5240 C.ar    1  LIG1        0.0330
     25  C         -6.6650    0.5740   13.8590 C.ar    1  LIG1        0.0200
     26  N        -10.2250    0.9600   14.7640 N.pl3   1  LIG1       -0.0660
     27  C        -11.1070    0.1180   14.2810 C.cat   1  LIG1        0.6920
     28  N        -10.9830   -0.6630   13.1520 N.pl3   1  LIG1       -0.2330
     29  N        -12.3170   -0.0680   14.9060 N.pl3   1  LIG1       -0.2330
     30  H        -10.1610   -0.6220   12.6130 H       1  LIG1        0.1740
     31  H        -11.7190   -1.2620   12.8850 H       1  LIG1        0.1740
     32  H        -12.5300    0.4320   15.7260 H       1  LIG1        0.1740
     33  H        -12.9710   -0.7030   14.5330 H       1  LIG1        0.1740
@<TRIPOS>BOND
     1    19    18    2
     2    16    15    1
     3     6     7   ar
     4     6     5   ar
     5     7     2   ar
     6    15    17    1
     7    15    13   am
     8     8     5    1
     9     8     9    1
    10    12    13    1
    11    12    11    1
    12     5     4   ar
    13    18    20    1
    14    18     1    1
    15    13    14    2
    16    21    20   ar
    17    21    22   ar
    18     2     1    1
    19     2     3   ar
    20    30    28    1
    21     9    11    1
    22     9    10    2
    23    20    25   ar
    24    31    28    1
    25    22    23   ar
    26    28    27    1
    27     4     3   ar
    28    25    24   ar
    29    23    24   ar
    30    23    26    1
    31    27    26    2
    32    27    29    1
    33    33    29    1
    34    29    32    1
