@<TRIPOS>MOLECULE
./../dock_file/temp/dfe1596b71ed1c82fb2a17eeeb2cf502/Camostat_Ligand_CID_2536:hmTMPRSS4:20230414002928/Camostat_Ligand_CID_2536:hmTMPRSS4_out_3.pdbqt
 33 34 0 0 0
SMALL
GASTEIGER

@<TRIPOS>ATOM
      1  O         13.7030   18.3220   12.7920 O.3     1  LIG1       -0.2750
      2  C         12.6220   18.2420   13.6150 C.ar    1  LIG1        0.0790
      3  C         11.3360   18.3840   13.0950 C.ar    1  LIG1        0.0380
      4  C         10.2290   18.3030   13.9390 C.ar    1  LIG1        0.0100
      5  C         10.4080   18.0770   15.3040 C.ar    1  LIG1       -0.0490
      6  C         11.6940   17.9350   15.8250 C.ar    1  LIG1        0.0100
      7  C         12.8010   18.0170   14.9800 C.ar    1  LIG1        0.0380
      8  C          9.2120   17.9890   16.2160 C.3     1  LIG1        0.1490
      9  C          7.9400   18.4880   15.5710 C.2     1  LIG1        0.2630
     10  O          7.1640   17.8080   14.9150 O.2     1  LIG1       -0.2650
     11  O          7.7870   19.8290   15.8360 O.3     1  LIG1       -0.3120
     12  C          7.6730   20.1880   17.1970 C.3     1  LIG1        0.2810
     13  C          6.2820   20.7220   17.4670 C.2     1  LIG1        0.2430
     14  O          5.3120   20.1070   17.0170 O.2     1  LIG1       -0.2710
     15  N          6.1780   21.8890   18.2250 N.am    1  LIG1       -0.3590
     16  C          7.3010   22.6370   18.7870 C.3     1  LIG1        0.1520
     17  C          4.8600   22.4370   18.5190 C.3     1  LIG1        0.1520
     18  C         13.6380   19.3590   11.8580 C.2     1  LIG1        0.2980
     19  O         13.5290   20.5470   12.1190 O.2     1  LIG1       -0.2590
     20  C         13.7030   18.8340   10.4700 C.ar    1  LIG1        0.0400
     21  C         13.0190   19.4870    9.4450 C.ar    1  LIG1        0.0200
     22  C         13.0810   18.9940    8.1420 C.ar    1  LIG1        0.0330
     23  C         13.8250   17.8480    7.8630 C.ar    1  LIG1        0.0750
     24  C         14.5090   17.1940    8.8890 C.ar    1  LIG1        0.0330
     25  C         14.4480   17.6870   10.1920 C.ar    1  LIG1        0.0200
     26  N         13.8860   17.3540    6.5560 N.pl3   1  LIG1       -0.0660
     27  C         12.9800   16.4920    6.1610 C.cat   1  LIG1        0.6920
     28  N         11.9300   15.9890    6.8980 N.pl3   1  LIG1       -0.2330
     29  N         13.0050   15.9830    4.8840 N.pl3   1  LIG1       -0.2330
     30  H         11.8010   16.2750    7.8300 H       1  LIG1        0.1740
     31  H         11.3090   15.3410    6.4900 H       1  LIG1        0.1740
     32  H         13.7070   16.2640    4.2550 H       1  LIG1        0.1740
     33  H         12.3180   15.3370    4.5990 H       1  LIG1        0.1740
@<TRIPOS>BOND
     1    32    29    1
     2    33    29    1
     3    29    27    1
     4    27    26    2
     5    27    28    1
     6    31    28    1
     7    26    23    1
     8    28    30    1
     9    23    22   ar
    10    23    24   ar
    11    22    21   ar
    12    24    25   ar
    13    21    20   ar
    14    25    20   ar
    15    20    18    1
    16    18    19    2
    17    18     1    1
    18     1     2    1
    19     3     2   ar
    20     3     4   ar
    21     2     7   ar
    22     4     5   ar
    23    10     9    2
    24     7     6   ar
    25     5     6   ar
    26     5     8    1
    27     9    11    1
    28     9     8    1
    29    11    12    1
    30    14    13    2
    31    12    13    1
    32    13    15   am
    33    15    17    1
    34    15    16    1
@<TRIPOS>MOLECULE
./../dock_file/temp/dfe1596b71ed1c82fb2a17eeeb2cf502/Camostat_Ligand_CID_2536:hmTMPRSS4:20230414002928/Camostat_Ligand_CID_2536:hmTMPRSS4_out_3.pdbqt
 33 34 0 0 0
SMALL
GASTEIGER

@<TRIPOS>ATOM
      1  O         11.6920   -1.7710    4.6380 O.3     1  LIG1       -0.2750
      2  C         12.7300   -0.8990    4.7530 C.ar    1  LIG1        0.0790
      3  C         13.1320   -0.1430    3.6510 C.ar    1  LIG1        0.0380
      4  C         14.1960    0.7510    3.7690 C.ar    1  LIG1        0.0100
      5  C         14.8580    0.8910    4.9900 C.ar    1  LIG1       -0.0490
      6  C         14.4560    0.1350    6.0910 C.ar    1  LIG1        0.0100
      7  C         13.3910   -0.7600    5.9730 C.ar    1  LIG1        0.0380
      8  C         16.0070    1.8560    5.1180 C.3     1  LIG1        0.1490
      9  C         15.8850    3.0440    4.1920 C.2     1  LIG1        0.2630
     10  O         16.4260    3.1500    3.1000 O.2     1  LIG1       -0.2650
     11  O         15.0680    3.9900    4.7640 O.3     1  LIG1       -0.3120
     12  C         14.0850    4.5560    3.9230 C.3     1  LIG1        0.2810
     13  C         12.7060    4.1880    4.4320 C.2     1  LIG1        0.2430
     14  O         12.6120    3.5690    5.4950 O.2     1  LIG1       -0.2710
     15  N         11.6110    4.5850    3.6640 N.am    1  LIG1       -0.3590
     16  C         11.6820    5.3320    2.4100 C.3     1  LIG1        0.1520
     17  C         10.2640    4.2610    4.1170 C.3     1  LIG1        0.1520
     18  C         11.0370   -1.7260    3.4050 C.2     1  LIG1        0.2980
     19  O         11.4490   -2.2100    2.3610 O.2     1  LIG1       -0.2590
     20  C          9.7530   -0.9870    3.5070 C.ar    1  LIG1        0.0400
     21  C          9.6840    0.3480    3.1100 C.ar    1  LIG1        0.0200
     22  C          8.4770    1.0420    3.2050 C.ar    1  LIG1        0.0330
     23  C          7.3410    0.4010    3.6990 C.ar    1  LIG1        0.0750
     24  C          7.4100   -0.9340    4.0960 C.ar    1  LIG1        0.0330
     25  C          8.6170   -1.6280    4.0010 C.ar    1  LIG1        0.0200
     26  N          6.1320    1.0970    3.7950 N.pl3   1  LIG1       -0.0660
     27  C          5.3660    1.1860    2.7340 C.cat   1  LIG1        0.6920
     28  N          5.6080    0.6610    1.4830 N.pl3   1  LIG1       -0.2330
     29  N          4.1690    1.8620    2.7860 N.pl3   1  LIG1       -0.2330
     30  H          6.4340    0.1540    1.3130 H       1  LIG1        0.1740
     31  H          4.9550    0.7950    0.7580 H       1  LIG1        0.1740
     32  H          3.8780    2.2840    3.6260 H       1  LIG1        0.1740
     33  H          3.6030    1.9210    1.9830 H       1  LIG1        0.1740
@<TRIPOS>BOND
     1    31    28    1
     2    30    28    1
     3    28    27    1
     4    33    29    1
     5    19    18    2
     6    16    15    1
     7    27    29    1
     8    27    26    2
     9    29    32    1
    10    10     9    2
    11    21    22   ar
    12    21    20   ar
    13    22    23   ar
    14    18    20    1
    15    18     1    1
    16    20    25   ar
    17     3     4   ar
    18     3     2   ar
    19    15    17    1
    20    15    13   am
    21    23    26    1
    22    23    24   ar
    23     4     5   ar
    24    12    13    1
    25    12    11    1
    26    25    24   ar
    27     9    11    1
    28     9     8    1
    29    13    14    2
    30     1     2    1
    31     2     7   ar
    32     5     8    1
    33     5     6   ar
    34     7     6   ar
@<TRIPOS>MOLECULE
./../dock_file/temp/dfe1596b71ed1c82fb2a17eeeb2cf502/Camostat_Ligand_CID_2536:hmTMPRSS4:20230414002928/Camostat_Ligand_CID_2536:hmTMPRSS4_out_3.pdbqt
 33 34 0 0 0
SMALL
GASTEIGER

@<TRIPOS>ATOM
      1  O         12.3070   18.8660   13.8070 O.3     1  LIG1       -0.2750
      2  C         12.6620   18.8410   12.4930 C.ar    1  LIG1        0.0790
      3  C         13.8950   18.3110   12.1130 C.ar    1  LIG1        0.0380
      4  C         14.2580   18.2850   10.7670 C.ar    1  LIG1        0.0100
      5  C         13.3880   18.7890    9.8000 C.ar    1  LIG1       -0.0490
      6  C         12.1540   19.3190   10.1800 C.ar    1  LIG1        0.0100
      7  C         11.7910   19.3440   11.5270 C.ar    1  LIG1        0.0380
      8  C         13.7800   18.7610    8.3450 C.3     1  LIG1        0.1490
      9  C         14.0270   17.3630    7.8280 C.2     1  LIG1        0.2630
     10  O         13.1600   16.5550    7.5260 O.2     1  LIG1       -0.2650
     11  O         15.3810   17.1370    7.7470 O.3     1  LIG1       -0.3120
     12  C         15.7990   15.7950    7.8890 C.3     1  LIG1        0.2810
     13  C         15.8930   15.4440    9.3590 C.2     1  LIG1        0.2430
     14  O         14.9750   14.8000    9.8750 O.2     1  LIG1       -0.2710
     15  N         17.0290   15.8670   10.0500 N.am    1  LIG1       -0.3590
     16  C         18.1410   16.6170    9.4710 C.3     1  LIG1        0.1520
     17  C         17.1690   15.5450   11.4640 C.3     1  LIG1        0.1520
     18  C         11.3710   17.8950   14.1680 C.2     1  LIG1        0.2980
     19  O         11.4820   16.6920   13.9810 O.2     1  LIG1       -0.2590
     20  C         10.1810   18.5100   14.8100 C.ar    1  LIG1        0.0400
     21  C          9.5540   17.8680   15.8770 C.ar    1  LIG1        0.0200
     22  C          8.4370   18.4460   16.4800 C.ar    1  LIG1        0.0330
     23  C          7.9470   19.6660   16.0160 C.ar    1  LIG1        0.0750
     24  C          8.5740   20.3090   14.9480 C.ar    1  LIG1        0.0330
     25  C          9.6910   19.7310   14.3450 C.ar    1  LIG1        0.0200
     26  N          6.8270   20.2460   16.6200 N.pl3   1  LIG1       -0.0660
     27  C          7.0010   21.0270   17.6600 C.cat   1  LIG1        0.6920
     28  N          8.1950   21.3650   18.2600 N.pl3   1  LIG1       -0.2330
     29  N          5.9260   21.6170   18.2830 N.pl3   1  LIG1       -0.2330
     30  H          9.0410   21.0060   17.9080 H       1  LIG1        0.1740
     31  H          8.2000   21.9640   19.0410 H       1  LIG1        0.1740
     32  H          5.0150   21.4550   17.9500 H       1  LIG1        0.1740
     33  H          6.0700   22.2010   19.0620 H       1  LIG1        0.1740
@<TRIPOS>BOND
     1    10     9    2
     2    11     9    1
     3    11    12    1
     4     9     8    1
     5    12    13    1
     6     8     5    1
     7    13    14    2
     8    13    15   am
     9    16    15    1
    10     5     6   ar
    11     5     4   ar
    12    15    17    1
    13     6     7   ar
    14     4     3   ar
    15     7     2   ar
    16     3     2   ar
    17     2     1    1
    18     1    18    1
    19    19    18    2
    20    18    20    1
    21    25    20   ar
    22    25    24   ar
    23    20    21   ar
    24    24    23   ar
    25    21    22   ar
    26    23    22   ar
    27    23    26    1
    28    26    27    2
    29    27    28    1
    30    27    29    1
    31    30    28    1
    32    32    29    1
    33    28    31    1
    34    29    33    1
@<TRIPOS>MOLECULE
./../dock_file/temp/dfe1596b71ed1c82fb2a17eeeb2cf502/Camostat_Ligand_CID_2536:hmTMPRSS4:20230414002928/Camostat_Ligand_CID_2536:hmTMPRSS4_out_3.pdbqt
 33 34 0 0 0
SMALL
GASTEIGER

@<TRIPOS>ATOM
      1  O          9.7610   -0.9970    2.8170 O.3     1  LIG1       -0.2750
      2  C         10.9050   -0.8530    3.5400 C.ar    1  LIG1        0.0790
      3  C         11.4550    0.4150    3.7310 C.ar    1  LIG1        0.0380
      4  C         12.6280    0.5620    4.4710 C.ar    1  LIG1        0.0100
      5  C         13.2510   -0.5590    5.0220 C.ar    1  LIG1       -0.0490
      6  C         12.7000   -1.8270    4.8300 C.ar    1  LIG1        0.0100
      7  C         11.5270   -1.9740    4.0890 C.ar    1  LIG1        0.0380
      8  C         14.5170   -0.4010    5.8220 C.3     1  LIG1        0.1490
      9  C         15.5990    0.3400    5.0710 C.2     1  LIG1        0.2630
     10  O         16.1030   -0.0190    4.0160 O.2     1  LIG1       -0.2650
     11  O         15.9330    1.4840    5.7570 O.3     1  LIG1       -0.3120
     12  C         16.3040    2.5970    4.9710 C.3     1  LIG1        0.2810
     13  C         17.4790    3.3040    5.6120 C.2     1  LIG1        0.2430
     14  O         17.2620    4.1190    6.5130 O.2     1  LIG1       -0.2710
     15  N         18.7550    2.9820    5.1470 N.am    1  LIG1       -0.3590
     16  C         19.0530    2.0130    4.0950 C.3     1  LIG1        0.1520
     17  C         19.9180    3.6300    5.7400 C.3     1  LIG1        0.1520
     18  C          8.5920   -0.9860    3.5830 C.2     1  LIG1        0.2980
     19  O          8.2490   -1.8530    4.3710 O.2     1  LIG1       -0.2590
     20  C          7.7840    0.2300    3.3090 C.ar    1  LIG1        0.0400
     21  C          6.6010    0.4530    4.0110 C.ar    1  LIG1        0.0200
     22  C          5.8420    1.5950    3.7540 C.ar    1  LIG1        0.0330
     23  C          6.2660    2.5130    2.7940 C.ar    1  LIG1        0.0750
     24  C          7.4510    2.2900    2.0910 C.ar    1  LIG1        0.0330
     25  C          8.2090    1.1480    2.3480 C.ar    1  LIG1        0.0200
     26  N          5.5050    3.6580    2.5360 N.pl3   1  LIG1       -0.0660
     27  C          5.7540    4.7510    3.2180 C.cat   1  LIG1        0.6920
     28  N          6.7080    4.9250    4.1970 N.pl3   1  LIG1       -0.2330
     29  N          5.0280    5.8980    2.9950 N.pl3   1  LIG1       -0.2330
     30  H          7.2940    4.1770    4.4520 H       1  LIG1        0.1740
     31  H          6.8010    5.7990    4.6430 H       1  LIG1        0.1740
     32  H          4.3150    5.9050    2.3170 H       1  LIG1        0.1740
     33  H          5.2250    6.7120    3.5120 H       1  LIG1        0.1740
@<TRIPOS>BOND
     1    24    25   ar
     2    24    23   ar
     3    32    29    1
     4    25    20   ar
     5    26    23    1
     6    26    27    2
     7    23    22   ar
     8     1     2    1
     9     1    18    1
    10    29    27    1
    11    29    33    1
    12    27    28    1
    13    20    18    1
    14    20    21   ar
    15     2     3   ar
    16     2     7   ar
    17    18    19    2
    18     3     4   ar
    19    22    21   ar
    20    10     9    2
    21     7     6   ar
    22    16    15    1
    23    28    30    1
    24    28    31    1
    25     4     5   ar
    26     6     5   ar
    27    12    13    1
    28    12    11    1
    29     5     8    1
    30     9    11    1
    31     9     8    1
    32    15    13   am
    33    15    17    1
    34    13    14    2
@<TRIPOS>MOLECULE
./../dock_file/temp/dfe1596b71ed1c82fb2a17eeeb2cf502/Camostat_Ligand_CID_2536:hmTMPRSS4:20230414002928/Camostat_Ligand_CID_2536:hmTMPRSS4_out_3.pdbqt
 33 34 0 0 0
SMALL
GASTEIGER

@<TRIPOS>ATOM
      1  O         13.0480   20.0890   11.1300 O.3     1  LIG1       -0.2750
      2  C         12.2960   19.6250   12.1650 C.ar    1  LIG1        0.0790
      3  C         12.8630   18.7720   13.1120 C.ar    1  LIG1        0.0380
      4  C         12.0920   18.2970   14.1720 C.ar    1  LIG1        0.0100
      5  C         10.7540   18.6750   14.2870 C.ar    1  LIG1       -0.0490
      6  C         10.1880   19.5280   13.3400 C.ar    1  LIG1        0.0100
      7  C         10.9590   20.0030   12.2790 C.ar    1  LIG1        0.0380
      8  C          9.9210   18.1620   15.4330 C.3     1  LIG1        0.1490
      9  C          8.4980   18.6660   15.3990 C.2     1  LIG1        0.2630
     10  O          7.5690   18.1260   14.8150 O.2     1  LIG1       -0.2650
     11  O          8.4050   19.8280   16.1270 O.3     1  LIG1       -0.3120
     12  C          7.7760   19.7260   17.3870 C.3     1  LIG1        0.2810
     13  C          6.4890   20.5250   17.3810 C.2     1  LIG1        0.2430
     14  O          5.4630   19.9940   16.9460 O.2     1  LIG1       -0.2710
     15  N          6.5390   21.8270   17.8800 N.am    1  LIG1       -0.3590
     16  C          7.7290   22.4840   18.4160 C.3     1  LIG1        0.1520
     17  C          5.3240   22.6320   17.9020 C.3     1  LIG1        0.1520
     18  C         13.0670   19.2510   10.0120 C.2     1  LIG1        0.2980
     19  O         12.1060   18.9790    9.3090 O.2     1  LIG1       -0.2590
     20  C         14.4260   18.6990    9.7800 C.ar    1  LIG1        0.0400
     21  C         15.5470   19.3950   10.2310 C.ar    1  LIG1        0.0200
     22  C         16.8240   18.8760   10.0130 C.ar    1  LIG1        0.0330
     23  C         16.9800   17.6630    9.3440 C.ar    1  LIG1        0.0750
     24  C         15.8580   16.9670    8.8920 C.ar    1  LIG1        0.0330
     25  C         14.5810   17.4850    9.1100 C.ar    1  LIG1        0.0200
     26  N         18.2600   17.1430    9.1250 N.pl3   1  LIG1       -0.0660
     27  C         18.7680   16.3170   10.0080 C.cat   1  LIG1        0.6920
     28  N         18.1790   15.8760   11.1740 N.pl3   1  LIG1       -0.2330
     29  N         20.0230   15.7840    9.8310 N.pl3   1  LIG1       -0.2330
     30  H         17.2780   16.1850   11.4180 H       1  LIG1        0.1740
     31  H         18.6620   15.2520   11.7630 H       1  LIG1        0.1740
     32  H         20.5500   16.0210    9.0350 H       1  LIG1        0.1740
     33  H         20.3930   15.1650   10.5010 H       1  LIG1        0.1740
@<TRIPOS>BOND
     1    24    25   ar
     2    24    23   ar
     3    32    29    1
     4    25    20   ar
     5    26    23    1
     6    26    27    2
     7    19    18    2
     8    23    22   ar
     9    20    18    1
    10    20    21   ar
    11    29    27    1
    12    29    33    1
    13    27    28    1
    14    18     1    1
    15    22    21   ar
    16     1     2    1
    17    28    30    1
    18    28    31    1
    19     2     7   ar
    20     2     3   ar
    21     7     6   ar
    22     3     4   ar
    23     6     5   ar
    24     4     5   ar
    25     5     8    1
    26    10     9    2
    27     9     8    1
    28     9    11    1
    29    11    12    1
    30    14    13    2
    31    13    12    1
    32    13    15   am
    33    15    17    1
    34    15    16    1
@<TRIPOS>MOLECULE
./../dock_file/temp/dfe1596b71ed1c82fb2a17eeeb2cf502/Camostat_Ligand_CID_2536:hmTMPRSS4:20230414002928/Camostat_Ligand_CID_2536:hmTMPRSS4_out_3.pdbqt
 33 34 0 0 0
SMALL
GASTEIGER

@<TRIPOS>ATOM
      1  O          9.3790   17.9430   16.1970 O.3     1  LIG1       -0.2750
      2  C         10.4030   18.0590   15.3080 C.ar    1  LIG1        0.0790
      3  C         10.1340   18.3200   13.9640 C.ar    1  LIG1        0.0380
      4  C         11.1830   18.4400   13.0530 C.ar    1  LIG1        0.0100
      5  C         12.5020   18.3000   13.4860 C.ar    1  LIG1       -0.0490
      6  C         12.7710   18.0390   14.8300 C.ar    1  LIG1        0.0100
      7  C         11.7210   17.9190   15.7410 C.ar    1  LIG1        0.0380
      8  C         13.6360   18.4290   12.5020 C.3     1  LIG1        0.1490
      9  C         13.6350   19.7530   11.7730 C.2     1  LIG1        0.2630
     10  O         13.8040   20.8480   12.2920 O.2     1  LIG1       -0.2650
     11  O         13.4170   19.5390   10.4330 O.3     1  LIG1       -0.3120
     12  C         12.5990   20.4830    9.7750 C.3     1  LIG1        0.2810
     13  C         11.1430   20.0990    9.9400 C.2     1  LIG1        0.2430
     14  O         10.7570   19.0210    9.4800 O.2     1  LIG1       -0.2710
     15  N         10.3160   20.9940   10.6210 N.am    1  LIG1       -0.3590
     16  C         10.7390   22.2700   11.1930 C.3     1  LIG1        0.1520
     17  C          8.9100   20.6640   10.8130 C.3     1  LIG1        0.1520
     18  C          8.1880   18.5450   15.7850 C.2     1  LIG1        0.2980
     19  O          7.3700   18.0570   15.0210 O.2     1  LIG1       -0.2590
     20  C          8.0340   19.8940   16.3870 C.ar    1  LIG1        0.0400
     21  C          7.7580   20.0230   17.7480 C.ar    1  LIG1        0.0200
     22  C          7.6150   21.2900   18.3130 C.ar    1  LIG1        0.0330
     23  C          7.7460   22.4280   17.5180 C.ar    1  LIG1        0.0750
     24  C          8.0220   22.3000   16.1560 C.ar    1  LIG1        0.0330
     25  C          8.1660   21.0330   15.5910 C.ar    1  LIG1        0.0200
     26  N          7.6010   23.6990   18.0850 N.pl3   1  LIG1       -0.0660
     27  C          6.3980   24.2060   18.2060 C.cat   1  LIG1        0.6920
     28  N          5.2060   23.6250   17.8310 N.pl3   1  LIG1       -0.2330
     29  N          6.2130   25.4510   18.7580 N.pl3   1  LIG1       -0.2330
     30  H          5.2020   22.7300   17.4210 H       1  LIG1        0.1740
     31  H          4.3580   24.1060   17.9720 H       1  LIG1        0.1740
     32  H          6.9880   25.9720   19.0680 H       1  LIG1        0.1740
     33  H          5.3040   25.8210   18.8440 H       1  LIG1        0.1740
@<TRIPOS>BOND
     1    14    13    2
     2    12    13    1
     3    12    11    1
     4    13    15   am
     5    11     9    1
     6    15    17    1
     7    15    16    1
     8     9    10    2
     9     9     8    1
    10     8     5    1
    11     4     5   ar
    12     4     3   ar
    13     5     6   ar
    14     3     2   ar
    15     6     7   ar
    16    19    18    2
    17     2     7   ar
    18     2     1    1
    19    25    24   ar
    20    25    20   ar
    21    18     1    1
    22    18    20    1
    23    24    23   ar
    24    20    21   ar
    25    30    28    1
    26    23    26    1
    27    23    22   ar
    28    21    22   ar
    29    28    31    1
    30    28    27    1
    31    26    27    2
    32    27    29    1
    33    29    33    1
    34    29    32    1
@<TRIPOS>MOLECULE
./../dock_file/temp/dfe1596b71ed1c82fb2a17eeeb2cf502/Camostat_Ligand_CID_2536:hmTMPRSS4:20230414002928/Camostat_Ligand_CID_2536:hmTMPRSS4_out_3.pdbqt
 33 34 0 0 0
SMALL
GASTEIGER

@<TRIPOS>ATOM
      1  O         11.0760   -1.5990    3.5950 O.3     1  LIG1       -0.2750
      2  C         11.9950   -0.8340    4.2450 C.ar    1  LIG1        0.0790
      3  C         12.8630   -1.4180    5.1680 C.ar    1  LIG1        0.0380
      4  C         13.8040   -0.6340    5.8330 C.ar    1  LIG1        0.0100
      5  C         13.8800    0.7350    5.5760 C.ar    1  LIG1       -0.0490
      6  C         13.0120    1.3190    4.6530 C.ar    1  LIG1        0.0100
      7  C         12.0700    0.5340    3.9870 C.ar    1  LIG1        0.0380
      8  C         14.8970    1.5820    6.2950 C.3     1  LIG1        0.1490
      9  C         16.0770    1.9500    5.4260 C.2     1  LIG1        0.2630
     10  O         16.7200    1.1710    4.7370 O.2     1  LIG1       -0.2650
     11  O         16.3180    3.3000    5.5260 O.3     1  LIG1       -0.3120
     12  C         16.4130    4.0100    4.3090 C.3     1  LIG1        0.2810
     13  C         15.0270    4.2260    3.7370 C.2     1  LIG1        0.2430
     14  O         14.2100    4.8800    4.3910 O.2     1  LIG1       -0.2710
     15  N         14.7570    3.6740    2.4840 N.am    1  LIG1       -0.3590
     16  C         15.7010    2.9080    1.6740 C.3     1  LIG1        0.1520
     17  C         13.4410    3.8630    1.8880 C.3     1  LIG1        0.1520
     18  C         10.5970   -1.0390    2.4080 C.2     1  LIG1        0.2980
     19  O         11.1280   -1.1320    1.3120 O.2     1  LIG1       -0.2590
     20  C          9.3420   -0.2810    2.6420 C.ar    1  LIG1        0.0400
     21  C          9.0740    0.8710    1.9030 C.ar    1  LIG1        0.0200
     22  C          7.8950    1.5820    2.1220 C.ar    1  LIG1        0.0330
     23  C          6.9830    1.1430    3.0810 C.ar    1  LIG1        0.0750
     24  C          7.2500   -0.0090    3.8210 C.ar    1  LIG1        0.0330
     25  C          8.4300   -0.7210    3.6020 C.ar    1  LIG1        0.0200
     26  N          5.8000    1.8560    3.3010 N.pl3   1  LIG1       -0.0660
     27  C          4.7700    1.6320    2.5200 C.cat   1  LIG1        0.6920
     28  N          4.6990    0.7480    1.4650 N.pl3   1  LIG1       -0.2330
     29  N          3.5890    2.3130    2.7030 N.pl3   1  LIG1       -0.2330
     30  H          5.4810    0.1990    1.2300 H       1  LIG1        0.1740
     31  H          3.8660    0.6670    0.9470 H       1  LIG1        0.1740
     32  H          3.5090    2.9750    3.4260 H       1  LIG1        0.1740
     33  H          2.8230    2.1360    2.1100 H       1  LIG1        0.1740
@<TRIPOS>BOND
     1    31    28    1
     2    30    28    1
     3    19    18    2
     4    28    27    1
     5    16    15    1
     6    17    15    1
     7    21    22   ar
     8    21    20   ar
     9    33    29    1
    10    22    23   ar
    11    18    20    1
    12    18     1    1
    13    15    13   am
    14    27    29    1
    15    27    26    2
    16    20    25   ar
    17    29    32    1
    18    23    26    1
    19    23    24   ar
    20     1     2    1
    21    25    24   ar
    22    13    12    1
    23    13    14    2
    24     7     2   ar
    25     7     6   ar
    26     2     3   ar
    27    12    11    1
    28     6     5   ar
    29    10     9    2
    30     3     4   ar
    31     9    11    1
    32     9     8    1
    33     5     4   ar
    34     5     8    1
@<TRIPOS>MOLECULE
./../dock_file/temp/dfe1596b71ed1c82fb2a17eeeb2cf502/Camostat_Ligand_CID_2536:hmTMPRSS4:20230414002928/Camostat_Ligand_CID_2536:hmTMPRSS4_out_3.pdbqt
 33 34 0 0 0
SMALL
GASTEIGER

@<TRIPOS>ATOM
      1  O          9.3620   17.9370   16.1570 O.3     1  LIG1       -0.2750
      2  C         10.4020   18.0630   15.2890 C.ar    1  LIG1        0.0790
      3  C         11.7130   17.9120   15.7430 C.ar    1  LIG1        0.0380
      4  C         12.7780   18.0410   14.8530 C.ar    1  LIG1        0.0100
      5  C         12.5350   18.3190   13.5070 C.ar    1  LIG1       -0.0490
      6  C         11.2240   18.4700   13.0530 C.ar    1  LIG1        0.0100
      7  C         10.1580   18.3410   13.9440 C.ar    1  LIG1        0.0380
      8  C         13.6860   18.4580   12.5450 C.3     1  LIG1        0.1490
      9  C         13.7920   19.8430   11.9500 C.2     1  LIG1        0.2630
     10  O         13.7300   20.8910   12.5770 O.2     1  LIG1       -0.2650
     11  O         13.9700   19.7450   10.5900 O.3     1  LIG1       -0.3120
     12  C         13.2070   18.7560    9.9300 C.3     1  LIG1        0.2810
     13  C         13.8890   18.3680    8.6350 C.2     1  LIG1        0.2430
     14  O         13.7150   19.0730    7.6370 O.2     1  LIG1       -0.2710
     15  N         14.6920   17.2260    8.6480 N.am    1  LIG1       -0.3590
     16  C         14.9340   16.3750    9.8110 C.3     1  LIG1        0.1520
     17  C         15.3750   16.8170    7.4280 C.3     1  LIG1        0.1520
     18  C          8.1890   18.5720   15.7430 C.2     1  LIG1        0.2980
     19  O          7.3540   18.1030   14.9850 O.2     1  LIG1       -0.2590
     20  C          8.0760   19.9290   16.3370 C.ar    1  LIG1        0.0400
     21  C          7.8110   20.0760   17.6980 C.ar    1  LIG1        0.0200
     22  C          7.7070   21.3500   18.2550 C.ar    1  LIG1        0.0330
     23  C          7.8660   22.4780   17.4510 C.ar    1  LIG1        0.0750
     24  C          8.1310   22.3330   16.0890 C.ar    1  LIG1        0.0330
     25  C          8.2360   21.0580   15.5320 C.ar    1  LIG1        0.0200
     26  N          7.7610   23.7570   18.0090 N.pl3   1  LIG1       -0.0660
     27  C          6.5720   24.2930   18.1460 C.cat   1  LIG1        0.6920
     28  N          5.3600   23.7370   17.7960 N.pl3   1  LIG1       -0.2330
     29  N          6.4250   25.5470   18.6910 N.pl3   1  LIG1       -0.2330
     30  H          5.3280   22.8400   17.3940 H       1  LIG1        0.1740
     31  H          4.5270   24.2390   17.9470 H       1  LIG1        0.1740
     32  H          7.2170   26.0520   18.9840 H       1  LIG1        0.1740
     33  H          5.5270   25.9380   18.7890 H       1  LIG1        0.1740
@<TRIPOS>BOND
     1    17    15    1
     2    14    13    2
     3    13    15   am
     4    13    12    1
     5    15    16    1
     6    12    11    1
     7    11     9    1
     8     9     8    1
     9     9    10    2
    10     8     5    1
    11     6     5   ar
    12     6     7   ar
    13     5     4   ar
    14     7     2   ar
    15     4     3   ar
    16    19    18    2
    17     2     3   ar
    18     2     1    1
    19    25    24   ar
    20    25    20   ar
    21    18     1    1
    22    18    20    1
    23    24    23   ar
    24    20    21   ar
    25    30    28    1
    26    23    26    1
    27    23    22   ar
    28    21    22   ar
    29    28    31    1
    30    28    27    1
    31    26    27    2
    32    27    29    1
    33    29    33    1
    34    29    32    1
@<TRIPOS>MOLECULE
./../dock_file/temp/dfe1596b71ed1c82fb2a17eeeb2cf502/Camostat_Ligand_CID_2536:hmTMPRSS4:20230414002928/Camostat_Ligand_CID_2536:hmTMPRSS4_out_3.pdbqt
 33 34 0 0 0
SMALL
GASTEIGER

@<TRIPOS>ATOM
      1  O         15.7730   21.6350   12.1370 O.3     1  LIG1       -0.2750
      2  C         14.4300   21.4140   12.1680 C.ar    1  LIG1        0.0790
      3  C         13.5650   22.2710   11.4870 C.ar    1  LIG1        0.0380
      4  C         12.1900   22.0440   11.5190 C.ar    1  LIG1        0.0100
      5  C         11.6790   20.9590   12.2310 C.ar    1  LIG1       -0.0490
      6  C         12.5440   20.1010   12.9120 C.ar    1  LIG1        0.0100
      7  C         13.9200   20.3290   12.8800 C.ar    1  LIG1        0.0380
      8  C         10.1920   20.7130   12.2660 C.3     1  LIG1        0.1490
      9  C          9.8130   19.3280   11.7970 C.2     1  LIG1        0.2630
     10  O         10.1560   18.8200   10.7380 O.2     1  LIG1       -0.2650
     11  O          9.0220   18.7230   12.7440 O.3     1  LIG1       -0.3120
     12  C          8.9140   19.3890   13.9850 C.3     1  LIG1        0.2810
     13  C          8.5670   18.3910   15.0700 C.2     1  LIG1        0.2430
     14  O          7.3790   18.1520   15.3000 O.2     1  LIG1       -0.2710
     15  N          9.6260   17.7860   15.7480 N.am    1  LIG1       -0.3590
     16  C         11.0450   18.0310   15.4950 C.3     1  LIG1        0.1520
     17  C          9.3430   16.8120   16.7950 C.3     1  LIG1        0.1520
     18  C         16.2500   22.4230   13.1870 C.2     1  LIG1        0.2980
     19  O         15.5750   23.1650   13.8850 O.2     1  LIG1       -0.2590
     20  C         17.7170   22.2650   13.3520 C.ar    1  LIG1        0.0400
     21  C         18.5110   21.9390   12.2530 C.ar    1  LIG1        0.0200
     22  C         19.8890   21.7900   12.4080 C.ar    1  LIG1        0.0330
     23  C         20.4740   21.9670   13.6610 C.ar    1  LIG1        0.0750
     24  C         19.6800   22.2930   14.7610 C.ar    1  LIG1        0.0330
     25  C         18.3010   22.4410   14.6060 C.ar    1  LIG1        0.0200
     26  N         21.8560   21.8180   13.8170 N.pl3   1  LIG1       -0.0660
     27  C         22.6260   22.8720   13.6890 C.cat   1  LIG1        0.6920
     28  N         22.2330   24.1630   13.4100 N.pl3   1  LIG1       -0.2330
     29  N         23.9890   22.7680   13.8340 N.pl3   1  LIG1       -0.2330
     30  H         21.2800   24.3710   13.2820 H       1  LIG1        0.1740
     31  H         22.9070   24.8770   13.3360 H       1  LIG1        0.1740
     32  H         24.3970   21.8960   14.0370 H       1  LIG1        0.1740
     33  H         24.5560   23.5670   13.7360 H       1  LIG1        0.1740
@<TRIPOS>BOND
     1    10     9    2
     2     3     4   ar
     3     3     2   ar
     4     4     5   ar
     5     9     8    1
     6     9    11    1
     7     1     2    1
     8     1    18    1
     9     2     7   ar
    10     5     8    1
    11     5     6   ar
    12    21    22   ar
    13    21    20   ar
    14    22    23   ar
    15    11    12    1
    16     7     6   ar
    17    18    20    1
    18    18    19    2
    19    30    28    1
    20    31    28    1
    21    20    25   ar
    22    28    27    1
    23    23    26    1
    24    23    24   ar
    25    27    26    2
    26    27    29    1
    27    33    29    1
    28    29    32    1
    29    12    13    1
    30    25    24   ar
    31    13    14    2
    32    13    15   am
    33    16    15    1
    34    15    17    1
