@<TRIPOS>MOLECULE
./../dock_file/temp/dfe1596b71ed1c82fb2a17eeeb2cf502/Camostat_Ligand_CID_2536:hmTMPRSS4:20230414002928/Camostat_Ligand_CID_2536:hmTMPRSS4_out_5.pdbqt
 33 34 0 0 0
SMALL
GASTEIGER

@<TRIPOS>ATOM
      1  O         -4.3550   -9.6100   32.5960 O.3     1  LIG1       -0.2750
      2  C         -3.4660  -10.5790   32.2470 C.ar    1  LIG1        0.0790
      3  C         -3.2080  -10.8390   30.9010 C.ar    1  LIG1        0.0380
      4  C         -2.2970  -11.8320   30.5440 C.ar    1  LIG1        0.0100
      5  C         -1.6420  -12.5660   31.5330 C.ar    1  LIG1       -0.0490
      6  C         -1.9000  -12.3070   32.8800 C.ar    1  LIG1        0.0100
      7  C         -2.8120  -11.3130   33.2370 C.ar    1  LIG1        0.0380
      8  C         -0.6570  -13.6390   31.1480 C.3     1  LIG1        0.1490
      9  C          0.7800  -13.1900   31.2660 C.2     1  LIG1        0.2630
     10  O          1.3280  -12.3700   30.5420 O.2     1  LIG1       -0.2650
     11  O          1.3810  -13.8430   32.3160 O.3     1  LIG1       -0.3120
     12  C          2.1070  -15.0100   31.9910 C.3     1  LIG1        0.2810
     13  C          3.5920  -14.7150   32.0400 C.2     1  LIG1        0.2430
     14  O          4.1370  -14.2460   31.0370 O.2     1  LIG1       -0.2710
     15  N          4.2620  -14.9860   33.2330 N.am    1  LIG1       -0.3590
     16  C          3.6500  -15.5270   34.4450 C.3     1  LIG1        0.1520
     17  C          5.6900  -14.7110   33.3310 C.3     1  LIG1        0.1520
     18  C         -3.8460   -8.3110   32.5270 C.2     1  LIG1        0.2980
     19  O         -3.0200   -7.8280   33.2880 O.2     1  LIG1       -0.2590
     20  C         -4.4520   -7.5570   31.4010 C.ar    1  LIG1        0.0400
     21  C         -3.6990   -6.6070   30.7120 C.ar    1  LIG1        0.0200
     22  C         -4.2680   -5.8990   29.6540 C.ar    1  LIG1        0.0330
     23  C         -5.5910   -6.1400   29.2850 C.ar    1  LIG1        0.0750
     24  C         -6.3460   -7.0900   29.9740 C.ar    1  LIG1        0.0330
     25  C         -5.7760   -7.7980   31.0320 C.ar    1  LIG1        0.0200
     26  N         -6.1620   -5.4290   28.2240 N.pl3   1  LIG1       -0.0660
     27  C         -6.0850   -5.9280   27.0130 C.cat   1  LIG1        0.6920
     28  N         -5.4890   -7.1110   26.6340 N.pl3   1  LIG1       -0.2330
     29  N         -6.6340   -5.2610   25.9430 N.pl3   1  LIG1       -0.2330
     30  H         -5.0580   -7.6830   27.3090 H       1  LIG1        0.1740
     31  H         -5.4930   -7.3830   25.6870 H       1  LIG1        0.1740
     32  H         -7.0910   -4.4010   26.0810 H       1  LIG1        0.1740
     33  H         -6.5700   -5.6460   25.0390 H       1  LIG1        0.1740
@<TRIPOS>BOND
     1    33    29    1
     2    31    28    1
     3    29    32    1
     4    29    27    1
     5    28    27    1
     6    28    30    1
     7    27    26    2
     8    26    23    1
     9    23    22   ar
    10    23    24   ar
    11    22    21   ar
    12    24    25   ar
    13    10     9    2
    14     4     3   ar
    15     4     5   ar
    16    21    20   ar
    17     3     2   ar
    18    25    20   ar
    19    14    13    2
    20     8     9    1
    21     8     5    1
    22     9    11    1
    23    20    18    1
    24     5     6   ar
    25    12    13    1
    26    12    11    1
    27    13    15   am
    28     2     1    1
    29     2     7   ar
    30    18     1    1
    31    18    19    2
    32     6     7   ar
    33    15    17    1
    34    15    16    1
@<TRIPOS>MOLECULE
./../dock_file/temp/dfe1596b71ed1c82fb2a17eeeb2cf502/Camostat_Ligand_CID_2536:hmTMPRSS4:20230414002928/Camostat_Ligand_CID_2536:hmTMPRSS4_out_5.pdbqt
 33 34 0 0 0
SMALL
GASTEIGER

@<TRIPOS>ATOM
      1  O         -4.1130   -9.6230   32.4820 O.3     1  LIG1       -0.2750
      2  C         -3.1180  -10.5120   32.2150 C.ar    1  LIG1        0.0790
      3  C         -2.8280  -10.8610   30.8960 C.ar    1  LIG1        0.0380
      4  C         -1.8080  -11.7710   30.6230 C.ar    1  LIG1        0.0100
      5  C         -1.0760  -12.3330   31.6690 C.ar    1  LIG1       -0.0490
      6  C         -1.3650  -11.9840   32.9880 C.ar    1  LIG1        0.0100
      7  C         -2.3860  -11.0730   33.2620 C.ar    1  LIG1        0.0380
      8  C          0.0270  -13.3170   31.3740 C.3     1  LIG1        0.1490
      9  C         -0.4700  -14.7380   31.2500 C.2     1  LIG1        0.2630
     10  O         -1.0480  -15.2050   30.2780 O.2     1  LIG1       -0.2650
     11  O         -0.1710  -15.4310   32.3990 O.3     1  LIG1       -0.3120
     12  C          0.9100  -16.3360   32.3200 C.3     1  LIG1        0.2810
     13  C          1.8070  -16.1640   33.5280 C.2     1  LIG1        0.2430
     14  O          1.4870  -16.7100   34.5870 O.2     1  LIG1       -0.2710
     15  N          2.9620  -15.3970   33.3670 N.am    1  LIG1       -0.3590
     16  C          3.3820  -14.7490   32.1270 C.3     1  LIG1        0.1520
     17  C          3.8610  -15.2110   34.4990 C.3     1  LIG1        0.1520
     18  C         -3.7050   -8.2870   32.4860 C.2     1  LIG1        0.2980
     19  O         -2.9450   -7.7760   33.2930 O.2     1  LIG1       -0.2590
     20  C         -4.3330   -7.5330   31.3710 C.ar    1  LIG1        0.0400
     21  C         -3.6070   -6.5540   30.6950 C.ar    1  LIG1        0.0200
     22  C         -4.1970   -5.8460   29.6480 C.ar    1  LIG1        0.0330
     23  C         -5.5140   -6.1170   29.2770 C.ar    1  LIG1        0.0750
     24  C         -6.2410   -7.0970   29.9530 C.ar    1  LIG1        0.0330
     25  C         -5.6510   -7.8050   31.0000 C.ar    1  LIG1        0.0200
     26  N         -6.1050   -5.4070   28.2270 N.pl3   1  LIG1       -0.0660
     27  C         -6.0600   -5.9100   27.0170 C.cat   1  LIG1        0.6920
     28  N         -5.4800   -7.0990   26.6280 N.pl3   1  LIG1       -0.2330
     29  N         -6.6300   -5.2440   25.9570 N.pl3   1  LIG1       -0.2330
     30  H         -5.0370   -7.6710   27.2950 H       1  LIG1        0.1740
     31  H         -5.5090   -7.3740   25.6830 H       1  LIG1        0.1740
     32  H         -7.0780   -4.3800   26.1030 H       1  LIG1        0.1740
     33  H         -6.5890   -5.6330   25.0530 H       1  LIG1        0.1740
@<TRIPOS>BOND
     1    33    29    1
     2    31    28    1
     3    29    32    1
     4    29    27    1
     5    28    27    1
     6    28    30    1
     7    27    26    2
     8    26    23    1
     9    23    22   ar
    10    23    24   ar
    11    22    21   ar
    12    24    25   ar
    13    10     9    2
    14     4     3   ar
    15     4     5   ar
    16    21    20   ar
    17     3     2   ar
    18    25    20   ar
    19     9     8    1
    20     9    11    1
    21    20    18    1
    22     8     5    1
    23     5     6   ar
    24    16    15    1
    25     2     1    1
    26     2     7   ar
    27    12    11    1
    28    12    13    1
    29     1    18    1
    30    18    19    2
    31     6     7   ar
    32    15    13   am
    33    15    17    1
    34    13    14    2
@<TRIPOS>MOLECULE
./../dock_file/temp/dfe1596b71ed1c82fb2a17eeeb2cf502/Camostat_Ligand_CID_2536:hmTMPRSS4:20230414002928/Camostat_Ligand_CID_2536:hmTMPRSS4_out_5.pdbqt
 33 34 0 0 0
SMALL
GASTEIGER

@<TRIPOS>ATOM
      1  O         11.9910  -12.1450   36.2550 O.3     1  LIG1       -0.2750
      2  C         11.9480  -10.7880   36.1540 C.ar    1  LIG1        0.0790
      3  C         12.3740   -9.9950   37.2200 C.ar    1  LIG1        0.0380
      4  C         12.3290   -8.6050   37.1150 C.ar    1  LIG1        0.0100
      5  C         11.8610   -8.0080   35.9450 C.ar    1  LIG1       -0.0490
      6  C         11.4360   -8.8020   34.8790 C.ar    1  LIG1        0.0100
      7  C         11.4800  -10.1920   34.9840 C.ar    1  LIG1        0.0380
      8  C         11.8130   -6.5060   35.8310 C.3     1  LIG1        0.1490
      9  C         12.9590   -5.9390   35.0270 C.2     1  LIG1        0.2630
     10  O         14.0670   -6.4450   34.9180 O.2     1  LIG1       -0.2650
     11  O         12.5660   -4.7640   34.4320 O.3     1  LIG1       -0.3120
     12  C         13.5820   -4.0100   33.8060 C.3     1  LIG1        0.2810
     13  C         13.7530   -2.6880   34.5260 C.2     1  LIG1        0.2430
     14  O         12.8130   -1.8890   34.5300 O.2     1  LIG1       -0.2710
     15  N         14.9760   -2.4540   35.1560 N.am    1  LIG1       -0.3590
     16  C         16.1050   -3.3800   35.1860 C.3     1  LIG1        0.1520
     17  C         15.1840   -1.2000   35.8690 C.3     1  LIG1        0.1520
     18  C         11.0540  -12.6850   37.1390 C.2     1  LIG1        0.2980
     19  O         11.1980  -12.8030   38.3460 O.2     1  LIG1       -0.2590
     20  C          9.8320  -13.1270   36.4200 C.ar    1  LIG1        0.0400
     21  C          8.6590  -12.3790   36.5130 C.ar    1  LIG1        0.0200
     22  C          7.5120  -12.7940   35.8370 C.ar    1  LIG1        0.0330
     23  C          7.5370  -13.9570   35.0680 C.ar    1  LIG1        0.0750
     24  C          8.7110  -14.7060   34.9740 C.ar    1  LIG1        0.0330
     25  C          9.8580  -14.2910   35.6500 C.ar    1  LIG1        0.0200
     26  N          6.3870  -14.3730   34.3890 N.pl3   1  LIG1       -0.0660
     27  C          6.1080  -13.8360   33.2260 C.cat   1  LIG1        0.6920
     28  N          6.8320  -12.8730   32.5560 N.pl3   1  LIG1       -0.2330
     29  N          4.9870  -14.2170   32.5270 N.pl3   1  LIG1       -0.2330
     30  H          7.6580  -12.5150   32.9510 H       1  LIG1        0.1740
     31  H          6.5200  -12.5430   31.6820 H       1  LIG1        0.1740
     32  H          4.3840  -14.9000   32.8980 H       1  LIG1        0.1740
     33  H          4.7880  -13.8070   31.6540 H       1  LIG1        0.1740
@<TRIPOS>BOND
     1    33    29    1
     2    31    28    1
     3    29    32    1
     4    29    27    1
     5    28    30    1
     6    28    27    1
     7    27    26    2
     8    12    11    1
     9    12    13    1
    10    26    23    1
    11    11     9    1
    12    13    14    2
    13    13    15   am
    14     6     7   ar
    15     6     5   ar
    16    10     9    2
    17    24    23   ar
    18    24    25   ar
    19     7     2   ar
    20     9     8    1
    21    23    22   ar
    22    15    16    1
    23    15    17    1
    24    25    20   ar
    25     8     5    1
    26    22    21   ar
    27     5     4   ar
    28     2     1    1
    29     2     3   ar
    30     1    18    1
    31    20    21   ar
    32    20    18    1
    33     4     3   ar
    34    18    19    2
@<TRIPOS>MOLECULE
./../dock_file/temp/dfe1596b71ed1c82fb2a17eeeb2cf502/Camostat_Ligand_CID_2536:hmTMPRSS4:20230414002928/Camostat_Ligand_CID_2536:hmTMPRSS4_out_5.pdbqt
 33 34 0 0 0
SMALL
GASTEIGER

@<TRIPOS>ATOM
      1  O         -4.4970   -9.5940   32.7390 O.3     1  LIG1       -0.2750
      2  C         -3.8810  -10.6610   32.1620 C.ar    1  LIG1        0.0790
      3  C         -3.1530  -10.4940   30.9840 C.ar    1  LIG1        0.0380
      4  C         -2.5220  -11.5880   30.3930 C.ar    1  LIG1        0.0100
      5  C         -2.6170  -12.8500   30.9810 C.ar    1  LIG1       -0.0490
      6  C         -3.3450  -13.0170   32.1590 C.ar    1  LIG1        0.0100
      7  C         -3.9770  -11.9220   32.7500 C.ar    1  LIG1        0.0380
      8  C         -1.9350  -14.0320   30.3430 C.3     1  LIG1        0.1490
      9  C         -0.8880  -14.6590   31.2340 C.2     1  LIG1        0.2630
     10  O         -0.9940  -15.7370   31.8030 O.2     1  LIG1       -0.2650
     11  O          0.2080  -13.8320   31.3060 O.3     1  LIG1       -0.3120
     12  C          0.8300  -13.7290   32.5700 C.3     1  LIG1        0.2810
     13  C          0.0760  -12.7350   33.4290 C.2     1  LIG1        0.2430
     14  O          0.0020  -11.5620   33.0530 O.2     1  LIG1       -0.2710
     15  N         -0.5050  -13.2120   34.6040 N.am    1  LIG1       -0.3590
     16  C         -0.4530  -14.5940   35.0740 C.3     1  LIG1        0.1520
     17  C         -1.2480  -12.2950   35.4590 C.3     1  LIG1        0.1520
     18  C         -3.8310   -8.3790   32.5580 C.2     1  LIG1        0.2980
     19  O         -2.8950   -7.9730   33.2310 O.2     1  LIG1       -0.2590
     20  C         -4.4180   -7.6080   31.4330 C.ar    1  LIG1        0.0400
     21  C         -5.7370   -7.8370   31.0440 C.ar    1  LIG1        0.0200
     22  C         -6.2890   -7.1130   29.9880 C.ar    1  LIG1        0.0330
     23  C         -5.5210   -6.1600   29.3190 C.ar    1  LIG1        0.0750
     24  C         -4.2010   -5.9300   29.7070 C.ar    1  LIG1        0.0330
     25  C         -3.6490   -6.6550   30.7640 C.ar    1  LIG1        0.0200
     26  N         -6.0740   -5.4330   28.2590 N.pl3   1  LIG1       -0.0660
     27  C         -6.0270   -5.9410   27.0500 C.cat   1  LIG1        0.6920
     28  N         -5.4800   -7.1480   26.6720 N.pl3   1  LIG1       -0.2330
     29  N         -6.5590   -5.2590   25.9820 N.pl3   1  LIG1       -0.2330
     30  H         -5.0650   -7.7320   27.3460 H       1  LIG1        0.1740
     31  H         -5.5030   -7.4240   25.7270 H       1  LIG1        0.1740
     32  H         -6.9820   -4.3810   26.1190 H       1  LIG1        0.1740
     33  H         -6.5180   -5.6500   25.0790 H       1  LIG1        0.1740
@<TRIPOS>BOND
     1    33    29    1
     2    31    28    1
     3    29    32    1
     4    29    27    1
     5    28    27    1
     6    28    30    1
     7    27    26    2
     8    26    23    1
     9    23    24   ar
    10    23    22   ar
    11    24    25   ar
    12    22    21   ar
    13     8     5    1
    14     8     9    1
    15     4     5   ar
    16     4     3   ar
    17    25    20   ar
    18     5     6   ar
    19     3     2   ar
    20    21    20   ar
    21     9    11    1
    22     9    10    2
    23    11    12    1
    24    20    18    1
    25     6     7   ar
    26     2     1    1
    27     2     7   ar
    28    18     1    1
    29    18    19    2
    30    12    13    1
    31    14    13    2
    32    13    15   am
    33    15    16    1
    34    15    17    1
@<TRIPOS>MOLECULE
./../dock_file/temp/dfe1596b71ed1c82fb2a17eeeb2cf502/Camostat_Ligand_CID_2536:hmTMPRSS4:20230414002928/Camostat_Ligand_CID_2536:hmTMPRSS4_out_5.pdbqt
 33 34 0 0 0
SMALL
GASTEIGER

@<TRIPOS>ATOM
      1  O          2.4390  -21.9850   25.4020 O.3     1  LIG1       -0.2750
      2  C          1.7690  -20.9740   24.7850 C.ar    1  LIG1        0.0790
      3  C          1.7200  -19.7090   25.3700 C.ar    1  LIG1        0.0380
      4  C          1.0330  -18.6740   24.7370 C.ar    1  LIG1        0.0100
      5  C          0.3960  -18.9030   23.5160 C.ar    1  LIG1       -0.0490
      6  C          0.4460  -20.1680   22.9310 C.ar    1  LIG1        0.0100
      7  C          1.1330  -21.2040   23.5650 C.ar    1  LIG1        0.0380
      8  C         -0.3460  -17.7840   22.8320 C.3     1  LIG1        0.1490
      9  C          0.0370  -17.6260   21.3790 C.2     1  LIG1        0.2630
     10  O         -0.2770  -18.3900   20.4760 O.2     1  LIG1       -0.2650
     11  O          0.7940  -16.4890   21.2250 O.3     1  LIG1       -0.3120
     12  C          0.2630  -15.4970   20.3720 C.3     1  LIG1        0.2810
     13  C          1.2050  -15.2690   19.2080 C.2     1  LIG1        0.2430
     14  O          1.3980  -16.1920   18.4110 O.2     1  LIG1       -0.2710
     15  N          1.7990  -14.0110   19.0980 N.am    1  LIG1       -0.3590
     16  C          1.5840  -12.8910   20.0110 C.3     1  LIG1        0.1520
     17  C          2.7060  -13.7410   17.9900 C.3     1  LIG1        0.1520
     18  C          3.8310  -21.8710   25.3460 C.2     1  LIG1        0.2980
     19  O          4.4950  -21.7520   24.3280 O.2     1  LIG1       -0.2590
     20  C          4.4280  -21.9290   26.7040 C.ar    1  LIG1        0.0400
     21  C          4.6710  -20.7520   27.4100 C.ar    1  LIG1        0.0200
     22  C          5.2320  -20.8070   28.6860 C.ar    1  LIG1        0.0330
     23  C          5.5510  -22.0390   29.2560 C.ar    1  LIG1        0.0750
     24  C          5.3080  -23.2180   28.5500 C.ar    1  LIG1        0.0330
     25  C          4.7470  -23.1630   27.2740 C.ar    1  LIG1        0.0200
     26  N          6.1140  -22.0940   30.5350 N.pl3   1  LIG1       -0.0660
     27  C          7.4200  -22.1060   30.6530 C.cat   1  LIG1        0.6920
     28  N          8.3500  -22.0710   29.6370 N.pl3   1  LIG1       -0.2330
     29  N          8.0120  -22.1600   31.8930 N.pl3   1  LIG1       -0.2330
     30  H          8.0540  -22.0320   28.7000 H       1  LIG1        0.1740
     31  H          9.3120  -22.0860   29.8500 H       1  LIG1        0.1740
     32  H          7.4560  -22.1880   32.7040 H       1  LIG1        0.1740
     33  H          8.9940  -22.1680   31.9690 H       1  LIG1        0.1740
@<TRIPOS>BOND
     1    17    15    1
     2    14    13    2
     3    15    13   am
     4    15    16    1
     5    13    12    1
     6    12    11    1
     7    10     9    2
     8    11     9    1
     9     9     8    1
    10     8     5    1
    11     6     5   ar
    12     6     7   ar
    13     5     4   ar
    14     7     2   ar
    15    19    18    2
    16     4     3   ar
    17     2     3   ar
    18     2     1    1
    19    18     1    1
    20    18    20    1
    21    20    25   ar
    22    20    21   ar
    23    25    24   ar
    24    21    22   ar
    25    24    23   ar
    26    22    23   ar
    27    30    28    1
    28    23    26    1
    29    28    31    1
    30    28    27    1
    31    26    27    2
    32    27    29    1
    33    29    33    1
    34    29    32    1
@<TRIPOS>MOLECULE
./../dock_file/temp/dfe1596b71ed1c82fb2a17eeeb2cf502/Camostat_Ligand_CID_2536:hmTMPRSS4:20230414002928/Camostat_Ligand_CID_2536:hmTMPRSS4_out_5.pdbqt
 33 34 0 0 0
SMALL
GASTEIGER

@<TRIPOS>ATOM
      1  O         14.7410   -3.1680   35.1980 O.3     1  LIG1       -0.2750
      2  C         14.0010   -4.2980   35.3620 C.ar    1  LIG1        0.0790
      3  C         13.4570   -4.6020   36.6110 C.ar    1  LIG1        0.0380
      4  C         12.6990   -5.7600   36.7780 C.ar    1  LIG1        0.0100
      5  C         12.4830   -6.6150   35.6980 C.ar    1  LIG1       -0.0490
      6  C         13.0270   -6.3120   34.4490 C.ar    1  LIG1        0.0100
      7  C         13.7860   -5.1530   34.2810 C.ar    1  LIG1        0.0380
      8  C         11.6640   -7.8670   35.8790 C.3     1  LIG1        0.1490
      9  C         12.5110   -9.1010   36.0820 C.2     1  LIG1        0.2630
     10  O         13.1530   -9.3620   37.0900 O.2     1  LIG1       -0.2650
     11  O         12.4500   -9.8900   34.9570 O.3     1  LIG1       -0.3120
     12  C         11.2700  -10.6460   34.7890 C.3     1  LIG1        0.2810
     13  C         11.4730  -12.0390   35.3480 C.2     1  LIG1        0.2430
     14  O         12.2310  -12.8120   34.7550 O.2     1  LIG1       -0.2710
     15  N         10.7900  -12.3670   36.5200 N.am    1  LIG1       -0.3590
     16  C          9.8970  -11.4760   37.2580 C.3     1  LIG1        0.1520
     17  C         10.9600  -13.6920   37.1010 C.3     1  LIG1        0.1520
     18  C         14.0650   -2.1270   34.5570 C.2     1  LIG1        0.2980
     19  O         12.8630   -1.9160   34.6130 O.2     1  LIG1       -0.2590
     20  C         15.0000   -1.2900   33.7630 C.ar    1  LIG1        0.0400
     21  C         14.8850    0.0990   33.7870 C.ar    1  LIG1        0.0200
     22  C         15.7640    0.8850   33.0410 C.ar    1  LIG1        0.0330
     23  C         16.7580    0.2820   32.2720 C.ar    1  LIG1        0.0750
     24  C         16.8740   -1.1090   32.2470 C.ar    1  LIG1        0.0330
     25  C         15.9950   -1.8940   32.9920 C.ar    1  LIG1        0.0200
     26  N         17.6390    1.0700   31.5240 N.pl3   1  LIG1       -0.0660
     27  C         17.3160    1.3900   30.2940 C.cat   1  LIG1        0.6920
     28  N         16.1720    1.0360   29.6130 N.pl3   1  LIG1       -0.2330
     29  N         18.1550    2.1630   29.5260 N.pl3   1  LIG1       -0.2330
     30  H         15.4890    0.4810   30.0530 H       1  LIG1        0.1740
     31  H         16.0380    1.3380   28.6850 H       1  LIG1        0.1740
     32  H         19.0070    2.4830   29.8980 H       1  LIG1        0.1740
     33  H         17.9000    2.3970   28.6040 H       1  LIG1        0.1740
@<TRIPOS>BOND
     1    33    29    1
     2    31    28    1
     3    29    32    1
     4    29    27    1
     5    28    30    1
     6    28    27    1
     7    27    26    2
     8    26    23    1
     9    24    23   ar
    10    24    25   ar
    11    23    22   ar
    12    25    20   ar
    13    22    21   ar
    14    20    21   ar
    15    20    18    1
    16     7     6   ar
    17     7     2   ar
    18     6     5   ar
    19    18    19    2
    20    18     1    1
    21    14    13    2
    22    12    11    1
    23    12    13    1
    24    11     9    1
    25     1     2    1
    26    13    15   am
    27     2     3   ar
    28     5     8    1
    29     5     4   ar
    30     8     9    1
    31     9    10    2
    32    15    17    1
    33    15    16    1
    34     3     4   ar
@<TRIPOS>MOLECULE
./../dock_file/temp/dfe1596b71ed1c82fb2a17eeeb2cf502/Camostat_Ligand_CID_2536:hmTMPRSS4:20230414002928/Camostat_Ligand_CID_2536:hmTMPRSS4_out_5.pdbqt
 33 34 0 0 0
SMALL
GASTEIGER

@<TRIPOS>ATOM
      1  O         12.8980   -5.3220   36.5800 O.3     1  LIG1       -0.2750
      2  C         12.6290   -6.6550   36.5220 C.ar    1  LIG1        0.0790
      3  C         12.9030   -7.4720   37.6190 C.ar    1  LIG1        0.0380
      4  C         12.6270   -8.8370   37.5580 C.ar    1  LIG1        0.0100
      5  C         12.0760   -9.3870   36.4010 C.ar    1  LIG1       -0.0490
      6  C         11.8010   -8.5700   35.3030 C.ar    1  LIG1        0.0100
      7  C         12.0780   -7.2040   35.3640 C.ar    1  LIG1        0.0380
      8  C         11.7770  -10.8620   36.3350 C.3     1  LIG1        0.1490
      9  C         12.8690  -11.6540   35.6560 C.2     1  LIG1        0.2630
     10  O         14.0660  -11.5550   35.8880 O.2     1  LIG1       -0.2650
     11  O         12.3110  -12.5090   34.7340 O.3     1  LIG1       -0.3120
     12  C         11.3250  -13.3940   35.2210 C.3     1  LIG1        0.2810
     13  C         11.8950  -14.7950   35.3040 C.2     1  LIG1        0.2430
     14  O         13.1200  -14.9400   35.2790 O.2     1  LIG1       -0.2710
     15  N         10.9900  -15.8510   35.4130 N.am    1  LIG1       -0.3590
     16  C          9.5350  -15.7190   35.4610 C.3     1  LIG1        0.1520
     17  C         11.4910  -17.2170   35.5050 C.3     1  LIG1        0.1520
     18  C         14.2250   -4.9910   36.2940 C.2     1  LIG1        0.2980
     19  O         15.1430   -4.9640   37.0990 O.2     1  LIG1       -0.2590
     20  C         14.3930   -4.6480   34.8590 C.ar    1  LIG1        0.0400
     21  C         15.5710   -4.9880   34.1940 C.ar    1  LIG1        0.0200
     22  C         15.7290   -4.6670   32.8460 C.ar    1  LIG1        0.0330
     23  C         14.7090   -4.0050   32.1620 C.ar    1  LIG1        0.0750
     24  C         13.5310   -3.6650   32.8260 C.ar    1  LIG1        0.0330
     25  C         13.3730   -3.9860   34.1750 C.ar    1  LIG1        0.0200
     26  N         14.8680   -3.6830   30.8100 N.pl3   1  LIG1       -0.0660
     27  C         14.8100   -4.6430   29.9190 C.cat   1  LIG1        0.6920
     28  N         14.6050   -5.9860   30.1510 N.pl3   1  LIG1       -0.2330
     29  N         14.9610   -4.3690   28.5800 N.pl3   1  LIG1       -0.2330
     30  H         14.4830   -6.3140   31.0700 H       1  LIG1        0.1740
     31  H         14.5820   -6.6180   29.3950 H       1  LIG1        0.1740
     32  H         15.1130   -3.4440   28.2810 H       1  LIG1        0.1740
     33  H         14.9150   -5.0980   27.9200 H       1  LIG1        0.1740
@<TRIPOS>BOND
     1    33    29    1
     2    32    29    1
     3    29    27    1
     4    31    28    1
     5    27    28    1
     6    27    26    2
     7    28    30    1
     8    26    23    1
     9    23    24   ar
    10    23    22   ar
    11    24    25   ar
    12    22    21   ar
    13    25    20   ar
    14    21    20   ar
    15    11    12    1
    16    11     9    1
    17    20    18    1
    18    12    13    1
    19    14    13    2
    20     6     7   ar
    21     6     5   ar
    22    13    15   am
    23     7     2   ar
    24    15    16    1
    25    15    17    1
    26     9    10    2
    27     9     8    1
    28    18     1    1
    29    18    19    2
    30     8     5    1
    31     5     4   ar
    32     2     1    1
    33     2     3   ar
    34     4     3   ar
@<TRIPOS>MOLECULE
./../dock_file/temp/dfe1596b71ed1c82fb2a17eeeb2cf502/Camostat_Ligand_CID_2536:hmTMPRSS4:20230414002928/Camostat_Ligand_CID_2536:hmTMPRSS4_out_5.pdbqt
 33 34 0 0 0
SMALL
GASTEIGER

@<TRIPOS>ATOM
      1  O         12.6550   -5.5360   36.6150 O.3     1  LIG1       -0.2750
      2  C         12.4530   -6.8780   36.5180 C.ar    1  LIG1        0.0790
      3  C         12.0520   -7.4390   35.3050 C.ar    1  LIG1        0.0380
      4  C         11.8450   -8.8140   35.2070 C.ar    1  LIG1        0.0100
      5  C         12.0410   -9.6310   36.3210 C.ar    1  LIG1       -0.0490
      6  C         12.4420   -9.0700   37.5340 C.ar    1  LIG1        0.0100
      7  C         12.6490   -7.6940   37.6320 C.ar    1  LIG1        0.0380
      8  C         11.8180  -11.1170   36.2150 C.3     1  LIG1        0.1490
      9  C         10.6870  -11.6070   37.0890 C.2     1  LIG1        0.2630
     10  O         10.8170  -12.2280   38.1340 O.2     1  LIG1       -0.2650
     11  O          9.4840  -11.2440   36.5300 O.3     1  LIG1       -0.3120
     12  C          8.3900  -12.0970   36.7950 C.3     1  LIG1        0.2810
     13  C          8.3750  -13.2310   35.7910 C.2     1  LIG1        0.2430
     14  O          8.3330  -12.9600   34.5880 O.2     1  LIG1       -0.2710
     15  N          8.4180  -14.5330   36.2930 N.am    1  LIG1       -0.3590
     16  C          8.4830  -14.8940   37.7070 C.3     1  LIG1        0.1520
     17  C          8.4130  -15.6580   35.3660 C.3     1  LIG1        0.1520
     18  C         13.9830   -5.1400   36.4370 C.2     1  LIG1        0.2980
     19  O         14.8390   -5.1030   37.3090 O.2     1  LIG1       -0.2590
     20  C         14.2400   -4.7430   35.0290 C.ar    1  LIG1        0.0400
     21  C         15.4760   -5.0090   34.4440 C.ar    1  LIG1        0.0200
     22  C         15.7170   -4.6360   33.1210 C.ar    1  LIG1        0.0330
     23  C         14.7210   -3.9950   32.3850 C.ar    1  LIG1        0.0750
     24  C         13.4830   -3.7280   32.9710 C.ar    1  LIG1        0.0330
     25  C         13.2430   -4.1010   34.2930 C.ar    1  LIG1        0.0200
     26  N         14.9620   -3.6210   31.0590 N.pl3   1  LIG1       -0.0660
     27  C         14.8630   -4.5270   30.1160 C.cat   1  LIG1        0.6920
     28  N         14.5370   -5.8580   30.2690 N.pl3   1  LIG1       -0.2330
     29  N         15.0910   -4.2000   28.8000 N.pl3   1  LIG1       -0.2330
     30  H         14.3500   -6.2190   31.1640 H       1  LIG1        0.1740
     31  H         14.4940   -6.4470   29.4810 H       1  LIG1        0.1740
     32  H         15.3320   -3.2780   28.5570 H       1  LIG1        0.1740
     33  H         15.0130   -4.8900   28.1020 H       1  LIG1        0.1740
@<TRIPOS>BOND
     1    33    29    1
     2    32    29    1
     3    29    27    1
     4    31    28    1
     5    27    28    1
     6    27    26    2
     7    28    30    1
     8    26    23    1
     9    23    24   ar
    10    23    22   ar
    11    24    25   ar
    12    22    21   ar
    13    25    20   ar
    14    21    20   ar
    15    14    13    2
    16    20    18    1
    17     4     3   ar
    18     4     5   ar
    19     3     2   ar
    20    17    15    1
    21    13    15   am
    22    13    12    1
    23     8     5    1
    24     8     9    1
    25    15    16    1
    26     5     6   ar
    27    18     1    1
    28    18    19    2
    29     2     1    1
    30     2     7   ar
    31    11    12    1
    32    11     9    1
    33     9    10    2
    34     6     7   ar
@<TRIPOS>MOLECULE
./../dock_file/temp/dfe1596b71ed1c82fb2a17eeeb2cf502/Camostat_Ligand_CID_2536:hmTMPRSS4:20230414002928/Camostat_Ligand_CID_2536:hmTMPRSS4_out_5.pdbqt
 33 34 0 0 0
SMALL
GASTEIGER

@<TRIPOS>ATOM
      1  O          3.2320  -21.7510   26.1930 O.3     1  LIG1       -0.2750
      2  C          2.5080  -20.8420   25.4860 C.ar    1  LIG1        0.0790
      3  C          2.1980  -19.6040   26.0500 C.ar    1  LIG1        0.0380
      4  C          1.4570  -18.6730   25.3250 C.ar    1  LIG1        0.0100
      5  C          1.0250  -18.9770   24.0340 C.ar    1  LIG1       -0.0490
      6  C          1.3350  -20.2150   23.4690 C.ar    1  LIG1        0.0100
      7  C          2.0770  -21.1470   24.1950 C.ar    1  LIG1        0.0380
      8  C          0.2240  -17.9710   23.2500 C.3     1  LIG1        0.1490
      9  C          1.0890  -17.0100   22.4670 C.2     1  LIG1        0.2630
     10  O          1.9890  -16.3270   22.9320 O.2     1  LIG1       -0.2650
     11  O          0.7080  -17.0230   21.1450 O.3     1  LIG1       -0.3120
     12  C         -0.1750  -15.9990   20.7400 C.3     1  LIG1        0.2810
     13  C          0.5110  -15.1060   19.7270 C.2     1  LIG1        0.2430
     14  O          1.7320  -15.2090   19.5760 O.2     1  LIG1       -0.2710
     15  N         -0.2890  -14.2160   19.0090 N.am    1  LIG1       -0.3590
     16  C         -1.7360  -14.0760   19.1490 C.3     1  LIG1        0.1520
     17  C          0.3250  -13.3430   18.0170 C.3     1  LIG1        0.1520
     18  C          2.6130  -22.1920   27.3650 C.2     1  LIG1        0.2980
     19  O          1.4120  -22.3570   27.5180 O.2     1  LIG1       -0.2590
     20  C          3.6090  -22.4300   28.4400 C.ar    1  LIG1        0.0400
     21  C          4.8270  -23.0390   28.1410 C.ar    1  LIG1        0.0200
     22  C          5.7630  -23.2620   29.1510 C.ar    1  LIG1        0.0330
     23  C          5.4800  -22.8760   30.4610 C.ar    1  LIG1        0.0750
     24  C          4.2620  -22.2670   30.7620 C.ar    1  LIG1        0.0330
     25  C          3.3260  -22.0440   29.7510 C.ar    1  LIG1        0.0200
     26  N          6.4190  -23.1000   31.4740 N.pl3   1  LIG1       -0.0660
     27  C          7.3890  -22.2330   31.6410 C.cat   1  LIG1        0.6920
     28  N          7.6150  -21.0820   30.9180 N.pl3   1  LIG1       -0.2330
     29  N          8.3320  -22.4160   32.6250 N.pl3   1  LIG1       -0.2330
     30  H          7.0090  -20.8370   30.1820 H       1  LIG1        0.1740
     31  H          8.3830  -20.5060   31.1370 H       1  LIG1        0.1740
     32  H          8.2830  -23.2030   33.2140 H       1  LIG1        0.1740
     33  H          9.0560  -21.7580   32.7410 H       1  LIG1        0.1740
@<TRIPOS>BOND
     1    17    15    1
     2    15    16    1
     3    15    13   am
     4    14    13    2
     5    13    12    1
     6    12    11    1
     7    11     9    1
     8     9    10    2
     9     9     8    1
    10     8     5    1
    11     6     5   ar
    12     6     7   ar
    13     5     4   ar
    14     7     2   ar
    15     4     3   ar
    16     2     3   ar
    17     2     1    1
    18     1    18    1
    19    18    19    2
    20    18    20    1
    21    21    20   ar
    22    21    22   ar
    23    20    25   ar
    24    22    23   ar
    25    25    24   ar
    26    30    28    1
    27    23    24   ar
    28    23    26    1
    29    28    31    1
    30    28    27    1
    31    26    27    2
    32    27    29    1
    33    29    33    1
    34    29    32    1
