@<TRIPOS>MOLECULE
./../dock_file/temp/dfe1596b71ed1c82fb2a17eeeb2cf502/Camostat_Ligand_CID_2536:hmTMPRSS4:20230414002928/Camostat_Ligand_CID_2536:hmTMPRSS4_out_4.pdbqt
 33 34 0 0 0
SMALL
GASTEIGER

@<TRIPOS>ATOM
      1  O         16.5300    4.8500   34.2930 O.3     1  LIG1       -0.2750
      2  C         16.3100    3.9090   33.3350 C.ar    1  LIG1        0.0790
      3  C         15.2250    3.0380   33.4480 C.ar    1  LIG1        0.0380
      4  C         15.0000    2.0740   32.4670 C.ar    1  LIG1        0.0100
      5  C         15.8570    1.9800   31.3700 C.ar    1  LIG1       -0.0490
      6  C         16.9420    2.8510   31.2570 C.ar    1  LIG1        0.0100
      7  C         17.1670    3.8150   32.2390 C.ar    1  LIG1        0.0380
      8  C         15.6140    0.9390   30.3090 C.3     1  LIG1        0.1490
      9  C         16.4550   -0.3020   30.4970 C.2     1  LIG1        0.2630
     10  O         17.6780   -0.3390   30.4720 O.2     1  LIG1       -0.2650
     11  O         15.6350   -1.3860   30.7020 O.3     1  LIG1       -0.3120
     12  C         15.5880   -1.8920   32.0200 C.3     1  LIG1        0.2810
     13  C         15.0010   -3.2880   32.0080 C.2     1  LIG1        0.2430
     14  O         14.6480   -3.7750   30.9300 O.2     1  LIG1       -0.2710
     15  N         14.9000   -3.9530   33.2310 N.am    1  LIG1       -0.3590
     16  C         15.3200   -3.4170   34.5240 C.3     1  LIG1        0.1520
     17  C         14.3500   -5.3020   33.2690 C.3     1  LIG1        0.1520
     18  C         16.1130    6.1360   33.9420 C.2     1  LIG1        0.2980
     19  O         14.9800    6.4530   33.6140 O.2     1  LIG1       -0.2590
     20  C         17.2420    7.0990   33.9990 C.ar    1  LIG1        0.0400
     21  C         18.3460    6.8320   34.8080 C.ar    1  LIG1        0.0200
     22  C         19.4070    7.7360   34.8610 C.ar    1  LIG1        0.0330
     23  C         19.3630    8.9080   34.1060 C.ar    1  LIG1        0.0750
     24  C         18.2580    9.1760   33.2970 C.ar    1  LIG1        0.0330
     25  C         17.1980    8.2720   33.2440 C.ar    1  LIG1        0.0200
     26  N         20.4270    9.8160   34.1600 N.pl3   1  LIG1       -0.0660
     27  C         20.3190   10.8740   34.9270 C.cat   1  LIG1        0.6920
     28  N         19.2480   11.2240   35.7200 N.pl3   1  LIG1       -0.2330
     29  N         21.3420   11.7900   35.0070 N.pl3   1  LIG1       -0.2330
     30  H         18.4500   10.6500   35.7510 H       1  LIG1        0.1740
     31  H         19.2820   12.0500   36.2560 H       1  LIG1        0.1740
     32  H         22.1660   11.6540   34.4870 H       1  LIG1        0.1740
     33  H         21.2490   12.5800   35.5870 H       1  LIG1        0.1740
@<TRIPOS>BOND
     1     8     9    1
     2     8     5    1
     3    10     9    2
     4     9    11    1
     5    11    12    1
     6    14    13    2
     7     6     5   ar
     8     6     7   ar
     9     5     4   ar
    10    13    12    1
    11    13    15   am
    12     7     2   ar
    13     4     3   ar
    14    15    17    1
    15    15    16    1
    16    25    24   ar
    17    25    20   ar
    18    24    23   ar
    19     2     3   ar
    20     2     1    1
    21    19    18    2
    22    18    20    1
    23    18     1    1
    24    20    21   ar
    25    23    26    1
    26    23    22   ar
    27    26    27    2
    28    32    29    1
    29    21    22   ar
    30    27    29    1
    31    27    28    1
    32    29    33    1
    33    28    30    1
    34    28    31    1
@<TRIPOS>MOLECULE
./../dock_file/temp/dfe1596b71ed1c82fb2a17eeeb2cf502/Camostat_Ligand_CID_2536:hmTMPRSS4:20230414002928/Camostat_Ligand_CID_2536:hmTMPRSS4_out_4.pdbqt
 33 34 0 0 0
SMALL
GASTEIGER

@<TRIPOS>ATOM
      1  O         19.0320    1.4410   29.3710 O.3     1  LIG1       -0.2750
      2  C         17.8400    1.4550   30.0270 C.ar    1  LIG1        0.0790
      3  C         16.9080    0.4400   29.8030 C.ar    1  LIG1        0.0380
      4  C         15.6870    0.4540   30.4740 C.ar    1  LIG1        0.0100
      5  C         15.3960    1.4820   31.3720 C.ar    1  LIG1       -0.0490
      6  C         16.3270    2.4960   31.5960 C.ar    1  LIG1        0.0100
      7  C         17.5490    2.4820   30.9240 C.ar    1  LIG1        0.0380
      8  C         14.0760    1.4970   32.0980 C.3     1  LIG1        0.1490
      9  C         14.2290    1.6180   33.5960 C.2     1  LIG1        0.2630
     10  O         14.9110    0.8860   34.3000 O.2     1  LIG1       -0.2650
     11  O         13.4840    2.6800   34.0500 O.3     1  LIG1       -0.3120
     12  C         14.0900    3.4930   35.0340 C.3     1  LIG1        0.2810
     13  C         14.6050    4.7660   34.3960 C.2     1  LIG1        0.2430
     14  O         13.7910    5.5810   33.9560 O.2     1  LIG1       -0.2710
     15  N         15.9880    4.9470   34.3510 N.am    1  LIG1       -0.3590
     16  C         16.9830    4.0130   34.8740 C.3     1  LIG1        0.1520
     17  C         16.5320    6.1600   33.7540 C.3     1  LIG1        0.1520
     18  C         20.1430    1.2750   30.2020 C.2     1  LIG1        0.2980
     19  O         20.4210    0.2610   30.8250 O.2     1  LIG1       -0.2590
     20  C         20.9630    2.5120   30.2540 C.ar    1  LIG1        0.0400
     21  C         20.8140    3.4890   29.2710 C.ar    1  LIG1        0.0200
     22  C         21.5840    4.6510   29.3200 C.ar    1  LIG1        0.0330
     23  C         22.5030    4.8360   30.3530 C.ar    1  LIG1        0.0750
     24  C         22.6530    3.8580   31.3370 C.ar    1  LIG1        0.0330
     25  C         21.8830    2.6960   31.2870 C.ar    1  LIG1        0.0200
     26  N         23.2760    6.0010   30.4020 N.pl3   1  LIG1       -0.0660
     27  C         24.3930    6.0510   29.7180 C.cat   1  LIG1        0.6920
     28  N         24.9290    5.0610   28.9220 N.pl3   1  LIG1       -0.2330
     29  N         25.1810    7.1780   29.7400 N.pl3   1  LIG1       -0.2330
     30  H         24.4600    4.2020   28.8220 H       1  LIG1        0.1740
     31  H         25.7820    5.2150   28.4540 H       1  LIG1        0.1740
     32  H         24.9080    7.9580   30.2720 H       1  LIG1        0.1740
     33  H         26.0170    7.2030   29.2210 H       1  LIG1        0.1740
@<TRIPOS>BOND
     1    31    28    1
     2    30    28    1
     3    28    27    1
     4    33    29    1
     5    21    22   ar
     6    21    20   ar
     7    22    23   ar
     8     1     2    1
     9     1    18    1
    10    27    29    1
    11    27    26    2
    12    29    32    1
    13     3     2   ar
    14     3     4   ar
    15     2     7   ar
    16    18    20    1
    17    18    19    2
    18    20    25   ar
    19    23    26    1
    20    23    24   ar
    21     4     5   ar
    22     7     6   ar
    23    25    24   ar
    24     5     6   ar
    25     5     8    1
    26     8     9    1
    27     9    11    1
    28     9    10    2
    29    17    15    1
    30    14    13    2
    31    11    12    1
    32    15    13   am
    33    15    16    1
    34    13    12    1
@<TRIPOS>MOLECULE
./../dock_file/temp/dfe1596b71ed1c82fb2a17eeeb2cf502/Camostat_Ligand_CID_2536:hmTMPRSS4:20230414002928/Camostat_Ligand_CID_2536:hmTMPRSS4_out_4.pdbqt
 33 34 0 0 0
SMALL
GASTEIGER

@<TRIPOS>ATOM
      1  O         16.2880    8.0800   33.4190 O.3     1  LIG1       -0.2750
      2  C         15.7500    6.8650   33.7120 C.ar    1  LIG1        0.0790
      3  C         14.3650    6.6950   33.7100 C.ar    1  LIG1        0.0380
      4  C         13.8140    5.4500   34.0110 C.ar    1  LIG1        0.0100
      5  C         14.6480    4.3730   34.3140 C.ar    1  LIG1       -0.0490
      6  C         16.0320    4.5430   34.3170 C.ar    1  LIG1        0.0100
      7  C         16.5830    5.7880   34.0160 C.ar    1  LIG1        0.0380
      8  C         14.0530    3.0280   34.6390 C.3     1  LIG1        0.1490
      9  C         14.7470    1.8890   33.9300 C.2     1  LIG1        0.2630
     10  O         15.7090    1.2670   34.3600 O.2     1  LIG1       -0.2650
     11  O         14.1320    1.6570   32.7230 O.3     1  LIG1       -0.3120
     12  C         14.7940    2.1520   31.5780 C.3     1  LIG1        0.2810
     13  C         15.5680    1.0320   30.9130 C.2     1  LIG1        0.2430
     14  O         14.9450    0.0710   30.4550 O.2     1  LIG1       -0.2710
     15  N         16.9560    1.1600   30.8500 N.am    1  LIG1       -0.3590
     16  C         17.7270    2.2880   31.3670 C.3     1  LIG1        0.1520
     17  C         17.7430    0.1130   30.2120 C.3     1  LIG1        0.1520
     18  C         17.5680    8.0220   32.8630 C.2     1  LIG1        0.2980
     19  O         17.8690    7.4560   31.8220 O.2     1  LIG1       -0.2590
     20  C         18.5540    8.7340   33.7150 C.ar    1  LIG1        0.0400
     21  C         18.1560    9.8370   34.4690 C.ar    1  LIG1        0.0200
     22  C         19.0820   10.5060   35.2690 C.ar    1  LIG1        0.0330
     23  C         20.4070   10.0710   35.3160 C.ar    1  LIG1        0.0750
     24  C         20.8060    8.9670   34.5620 C.ar    1  LIG1        0.0330
     25  C         19.8790    8.2990   33.7610 C.ar    1  LIG1        0.0200
     26  N         21.3360   10.7420   36.1190 N.pl3   1  LIG1       -0.0660
     27  C         22.0150   11.7380   35.6050 C.cat   1  LIG1        0.6920
     28  N         21.9300   12.2320   34.3210 N.pl3   1  LIG1       -0.2330
     29  N         22.9380   12.4230   36.3600 N.pl3   1  LIG1       -0.2330
     30  H         21.3060   11.8270   33.6780 H       1  LIG1        0.1740
     31  H         22.4970   12.9900   34.0470 H       1  LIG1        0.1740
     32  H         23.0930   12.1680   37.2980 H       1  LIG1        0.1740
     33  H         23.4420   13.1700   35.9630 H       1  LIG1        0.1740
@<TRIPOS>BOND
     1    17    15    1
     2    14    13    2
     3    15    13   am
     4    15    16    1
     5    13    12    1
     6    12    11    1
     7    19    18    2
     8    11     9    1
     9    18     1    1
    10    18    20    1
    11     1     2    1
    12    30    28    1
    13     3     2   ar
    14     3     4   ar
    15     2     7   ar
    16    20    25   ar
    17    20    21   ar
    18    25    24   ar
    19     9    10    2
    20     9     8    1
    21     4     5   ar
    22     7     6   ar
    23    31    28    1
    24     5     6   ar
    25     5     8    1
    26    28    27    1
    27    21    22   ar
    28    24    23   ar
    29    22    23   ar
    30    23    26    1
    31    27    26    2
    32    27    29    1
    33    33    29    1
    34    29    32    1
@<TRIPOS>MOLECULE
./../dock_file/temp/dfe1596b71ed1c82fb2a17eeeb2cf502/Camostat_Ligand_CID_2536:hmTMPRSS4:20230414002928/Camostat_Ligand_CID_2536:hmTMPRSS4_out_4.pdbqt
 33 34 0 0 0
SMALL
GASTEIGER

@<TRIPOS>ATOM
      1  O         15.8870    4.5200   34.3520 O.3     1  LIG1       -0.2750
      2  C         15.8180    3.6170   33.3360 C.ar    1  LIG1        0.0790
      3  C         14.6870    2.8130   33.1920 C.ar    1  LIG1        0.0380
      4  C         14.6180    1.8880   32.1520 C.ar    1  LIG1        0.0100
      5  C         15.6780    1.7660   31.2530 C.ar    1  LIG1       -0.0490
      6  C         16.8090    2.5700   31.3970 C.ar    1  LIG1        0.0100
      7  C         16.8790    3.4960   32.4380 C.ar    1  LIG1        0.0380
      8  C         15.6030    0.7660   30.1280 C.3     1  LIG1        0.1490
      9  C         15.9390   -0.6400   30.5670 C.2     1  LIG1        0.2630
     10  O         15.3200   -1.6470   30.2530 O.2     1  LIG1       -0.2650
     11  O         17.0520   -0.6150   31.3740 O.3     1  LIG1       -0.3120
     12  C         17.0830   -1.5600   32.4230 C.3     1  LIG1        0.2810
     13  C         16.2360   -1.0670   33.5780 C.2     1  LIG1        0.2430
     14  O         15.1050   -1.5360   33.7270 O.2     1  LIG1       -0.2710
     15  N         16.7960   -0.1060   34.4210 N.am    1  LIG1       -0.3590
     16  C         18.1360    0.4610   34.2860 C.3     1  LIG1        0.1520
     17  C         16.0230    0.3930   35.5510 C.3     1  LIG1        0.1520
     18  C         15.5240    5.8200   33.9900 C.2     1  LIG1        0.2980
     19  O         14.3950    6.1940   33.7140 O.2     1  LIG1       -0.2590
     20  C         16.7070    6.7180   33.9640 C.ar    1  LIG1        0.0400
     21  C         17.8460    6.3920   34.6990 C.ar    1  LIG1        0.0200
     22  C         18.9570    7.2360   34.6740 C.ar    1  LIG1        0.0330
     23  C         18.9280    8.4050   33.9140 C.ar    1  LIG1        0.0750
     24  C         17.7890    8.7310   33.1790 C.ar    1  LIG1        0.0330
     25  C         16.6780    7.8880   33.2040 C.ar    1  LIG1        0.0200
     26  N         20.0420    9.2510   33.8890 N.pl3   1  LIG1       -0.0660
     27  C         20.0060   10.3670   34.5760 C.cat   1  LIG1        0.6920
     28  N         18.9690   10.8360   35.3530 N.pl3   1  LIG1       -0.2330
     29  N         21.0800   11.2260   34.5780 N.pl3   1  LIG1       -0.2330
     30  H         18.1400   10.3130   35.4340 H       1  LIG1        0.1740
     31  H         19.0580   11.6960   35.8250 H       1  LIG1        0.1740
     32  H         21.8880   11.0050   34.0610 H       1  LIG1        0.1740
     33  H         21.0410   12.0610   35.0980 H       1  LIG1        0.1740
@<TRIPOS>BOND
     1     8     9    1
     2     8     5    1
     3    10     9    2
     4     9    11    1
     5     5     6   ar
     6     5     4   ar
     7    11    12    1
     8     6     7   ar
     9     4     3   ar
    10    12    13    1
    11     7     2   ar
    12    24    25   ar
    13    24    23   ar
    14     3     2   ar
    15    25    20   ar
    16     2     1    1
    17    13    14    2
    18    13    15   am
    19    19    18    2
    20    26    23    1
    21    26    27    2
    22    23    22   ar
    23    20    18    1
    24    20    21   ar
    25    18     1    1
    26    32    29    1
    27    16    15    1
    28    15    17    1
    29    27    29    1
    30    27    28    1
    31    29    33    1
    32    22    21   ar
    33    28    30    1
    34    28    31    1
@<TRIPOS>MOLECULE
./../dock_file/temp/dfe1596b71ed1c82fb2a17eeeb2cf502/Camostat_Ligand_CID_2536:hmTMPRSS4:20230414002928/Camostat_Ligand_CID_2536:hmTMPRSS4_out_4.pdbqt
 33 34 0 0 0
SMALL
GASTEIGER

@<TRIPOS>ATOM
      1  O         16.3480    4.9060   34.3750 O.3     1  LIG1       -0.2750
      2  C         16.1050    3.9240   33.4650 C.ar    1  LIG1        0.0790
      3  C         16.9530    3.7630   32.3680 C.ar    1  LIG1        0.0380
      4  C         16.7050    2.7570   31.4360 C.ar    1  LIG1        0.0100
      5  C         15.6090    1.9090   31.6000 C.ar    1  LIG1       -0.0490
      6  C         14.7610    2.0690   32.6960 C.ar    1  LIG1        0.0100
      7  C         15.0100    3.0760   33.6290 C.ar    1  LIG1        0.0380
      8  C         15.3400    0.8210   30.5930 C.3     1  LIG1        0.1490
      9  C         16.5600   -0.0180   30.2920 C.2     1  LIG1        0.2630
     10  O         17.0720   -0.1540   29.1890 O.2     1  LIG1       -0.2650
     11  O         17.0100   -0.6060   31.4500 O.3     1  LIG1       -0.3120
     12  C         18.4010   -0.5400   31.6850 C.3     1  LIG1        0.2810
     13  C         18.9070   -1.8970   32.1270 C.2     1  LIG1        0.2430
     14  O         18.0920   -2.7360   32.5210 O.2     1  LIG1       -0.2710
     15  N         20.2820   -2.1240   32.0540 N.am    1  LIG1       -0.3590
     16  C         21.2760   -1.1630   31.5800 C.3     1  LIG1        0.1520
     17  C         20.8170   -3.4180   32.4600 C.3     1  LIG1        0.1520
     18  C         15.9690    6.1840   33.9560 C.2     1  LIG1        0.2980
     19  O         14.8520    6.5110   33.5870 O.2     1  LIG1       -0.2590
     20  C         17.1190    7.1230   33.9960 C.ar    1  LIG1        0.0400
     21  C         17.0930    8.2900   33.2340 C.ar    1  LIG1        0.0200
     22  C         18.1730    9.1720   33.2730 C.ar    1  LIG1        0.0330
     23  C         19.2800    8.8860   34.0720 C.ar    1  LIG1        0.0750
     24  C         19.3060    7.7180   34.8340 C.ar    1  LIG1        0.0330
     25  C         18.2260    6.8360   34.7960 C.ar    1  LIG1        0.0200
     26  N         20.3630    9.7710   34.1100 N.pl3   1  LIG1       -0.0660
     27  C         20.2880   10.8320   34.8780 C.cat   1  LIG1        0.6920
     28  N         19.2360   11.2040   35.6860 N.pl3   1  LIG1       -0.2330
     29  N         21.3310   11.7260   34.9440 N.pl3   1  LIG1       -0.2330
     30  H         18.4260   10.6470   35.7280 H       1  LIG1        0.1740
     31  H         19.2950   12.0290   36.2210 H       1  LIG1        0.1740
     32  H         22.1450   11.5730   34.4120 H       1  LIG1        0.1740
     33  H         21.2630   12.5180   35.5240 H       1  LIG1        0.1740
@<TRIPOS>BOND
     1    10     9    2
     2     9     8    1
     3     9    11    1
     4     8     5    1
     5     4     5   ar
     6     4     3   ar
     7    11    12    1
     8    16    15    1
     9     5     6   ar
    10    12    13    1
    11    15    13   am
    12    15    17    1
    13    13    14    2
    14     3     2   ar
    15     6     7   ar
    16    21    22   ar
    17    21    20   ar
    18    22    23   ar
    19     2     7   ar
    20     2     1    1
    21    19    18    2
    22    18    20    1
    23    18     1    1
    24    20    25   ar
    25    23    26    1
    26    23    24   ar
    27    26    27    2
    28    32    29    1
    29    25    24   ar
    30    27    29    1
    31    27    28    1
    32    29    33    1
    33    28    30    1
    34    28    31    1
@<TRIPOS>MOLECULE
./../dock_file/temp/dfe1596b71ed1c82fb2a17eeeb2cf502/Camostat_Ligand_CID_2536:hmTMPRSS4:20230414002928/Camostat_Ligand_CID_2536:hmTMPRSS4_out_4.pdbqt
 33 34 0 0 0
SMALL
GASTEIGER

@<TRIPOS>ATOM
      1  O         19.0430    1.4600   29.4640 O.3     1  LIG1       -0.2750
      2  C         17.8280    1.4780   30.0780 C.ar    1  LIG1        0.0790
      3  C         16.8760    0.5060   29.7700 C.ar    1  LIG1        0.0380
      4  C         15.6320    0.5240   30.3990 C.ar    1  LIG1        0.0100
      5  C         15.3390    1.5140   31.3380 C.ar    1  LIG1       -0.0490
      6  C         16.2910    2.4860   31.6460 C.ar    1  LIG1        0.0100
      7  C         17.5360    2.4680   31.0160 C.ar    1  LIG1        0.0380
      8  C         13.9950    1.5350   32.0180 C.3     1  LIG1        0.1490
      9  C         14.0910    1.7790   33.5060 C.2     1  LIG1        0.2630
     10  O         13.6410    2.7510   34.0950 O.2     1  LIG1       -0.2650
     11  O         14.7630    0.7360   34.0990 O.3     1  LIG1       -0.3120
     12  C         14.1550   -0.5340   34.0010 C.3     1  LIG1        0.2810
     13  C         15.2000   -1.5730   33.6510 C.2     1  LIG1        0.2430
     14  O         16.3500   -1.1980   33.4030 O.2     1  LIG1       -0.2710
     15  N         14.7980   -2.9090   33.6360 N.am    1  LIG1       -0.3590
     16  C         13.4530   -3.3920   33.9380 C.3     1  LIG1        0.1520
     17  C         15.7700   -3.9460   33.3130 C.3     1  LIG1        0.1520
     18  C         20.1130    1.1780   30.3160 C.2     1  LIG1        0.2980
     19  O         20.2670    0.1440   30.9490 O.2     1  LIG1       -0.2590
     20  C         21.0630    2.3180   30.3780 C.ar    1  LIG1        0.0400
     21  C         22.0820    2.3250   31.3300 C.ar    1  LIG1        0.0200
     22  C         22.9740    3.3960   31.3880 C.ar    1  LIG1        0.0330
     23  C         22.8460    4.4600   30.4960 C.ar    1  LIG1        0.0750
     24  C         21.8270    4.4530   29.5430 C.ar    1  LIG1        0.0330
     25  C         20.9350    3.3820   29.4850 C.ar    1  LIG1        0.0200
     26  N         23.7410    5.5340   30.5540 N.pl3   1  LIG1       -0.0660
     27  C         23.5290    6.4880   31.4280 C.cat   1  LIG1        0.6920
     28  N         22.4950    6.5750   32.3360 N.pl3   1  LIG1       -0.2330
     29  N         24.3850    7.5610   31.5180 N.pl3   1  LIG1       -0.2330
     30  H         21.8120    5.8680   32.3720 H       1  LIG1        0.1740
     31  H         22.4400    7.3460   32.9460 H       1  LIG1        0.1740
     32  H         25.1670    7.6180   30.9230 H       1  LIG1        0.1740
     33  H         24.2150    8.2710   32.1790 H       1  LIG1        0.1740
@<TRIPOS>BOND
     1     1     2    1
     2     1    18    1
     3    25    24   ar
     4    25    20   ar
     5    24    23   ar
     6     3     2   ar
     7     3     4   ar
     8     2     7   ar
     9    18    20    1
    10    18    19    2
    11    20    21   ar
    12     4     5   ar
    13    23    26    1
    14    23    22   ar
    15    26    27    2
    16    32    29    1
    17     7     6   ar
    18    21    22   ar
    19     5     6   ar
    20     5     8    1
    21    27    29    1
    22    27    28    1
    23    29    33    1
    24     8     9    1
    25    28    30    1
    26    28    31    1
    27    17    15    1
    28    14    13    2
    29     9    10    2
    30     9    11    1
    31    15    13   am
    32    15    16    1
    33    13    12    1
    34    12    11    1
@<TRIPOS>MOLECULE
./../dock_file/temp/dfe1596b71ed1c82fb2a17eeeb2cf502/Camostat_Ligand_CID_2536:hmTMPRSS4:20230414002928/Camostat_Ligand_CID_2536:hmTMPRSS4_out_4.pdbqt
 33 34 0 0 0
SMALL
GASTEIGER

@<TRIPOS>ATOM
      1  O         15.8730    5.0820   34.2150 O.3     1  LIG1       -0.2750
      2  C         15.4270    3.8120   34.4180 C.ar    1  LIG1        0.0790
      3  C         14.2570    3.3750   33.7980 C.ar    1  LIG1        0.0380
      4  C         13.8010    2.0740   34.0060 C.ar    1  LIG1        0.0100
      5  C         14.5150    1.2090   34.8340 C.ar    1  LIG1       -0.0490
      6  C         15.6860    1.6460   35.4550 C.ar    1  LIG1        0.0100
      7  C         16.1420    2.9470   35.2470 C.ar    1  LIG1        0.0380
      8  C         14.0230   -0.1970   35.0600 C.3     1  LIG1        0.1490
      9  C         14.9280   -1.2430   34.4520 C.2     1  LIG1        0.2630
     10  O         15.6580   -1.9990   35.0780 O.2     1  LIG1       -0.2650
     11  O         14.8050   -1.2180   33.0830 O.3     1  LIG1       -0.3120
     12  C         15.9040   -1.7120   32.3480 C.3     1  LIG1        0.2810
     13  C         16.1040   -0.8730   31.1030 C.2     1  LIG1        0.2430
     14  O         15.4780   -1.1680   30.0820 O.2     1  LIG1       -0.2710
     15  N         16.9880    0.2030   31.1890 N.am    1  LIG1       -0.3590
     16  C         17.7350    0.5930   32.3830 C.3     1  LIG1        0.1520
     17  C         17.2070    1.0450   30.0200 C.3     1  LIG1        0.1520
     18  C         16.9110    5.1850   33.2860 C.2     1  LIG1        0.2980
     19  O         17.1560    4.3810   32.4000 O.2     1  LIG1       -0.2590
     20  C         17.7150    6.4120   33.5160 C.ar    1  LIG1        0.0400
     21  C         17.2530    7.6450   33.0560 C.ar    1  LIG1        0.0200
     22  C         18.0090    8.7970   33.2720 C.ar    1  LIG1        0.0330
     23  C         19.2260    8.7170   33.9470 C.ar    1  LIG1        0.0750
     24  C         19.6890    7.4840   34.4070 C.ar    1  LIG1        0.0330
     25  C         18.9340    6.3320   34.1910 C.ar    1  LIG1        0.0200
     26  N         19.9840    9.8730   34.1640 N.pl3   1  LIG1       -0.0660
     27  C         19.8160   10.5410   35.2800 C.cat   1  LIG1        0.6920
     28  N         18.9520   10.2400   36.3110 N.pl3   1  LIG1       -0.2330
     29  N         20.5410   11.6820   35.5320 N.pl3   1  LIG1       -0.2330
     30  H         18.3750    9.4450   36.2530 H       1  LIG1        0.1740
     31  H         18.9130   10.8210   37.1050 H       1  LIG1        0.1740
     32  H         21.1940   12.0060   34.8710 H       1  LIG1        0.1740
     33  H         20.4050   12.1750   36.3730 H       1  LIG1        0.1740
@<TRIPOS>BOND
     1    17    15    1
     2    14    13    2
     3    13    15   am
     4    13    12    1
     5    15    16    1
     6    12    11    1
     7    19    18    2
     8    21    22   ar
     9    21    20   ar
    10    11     9    1
    11    22    23   ar
    12    18    20    1
    13    18     1    1
    14    20    25   ar
    15     3     4   ar
    16     3     2   ar
    17    23    26    1
    18    23    24   ar
    19     4     5   ar
    20    26    27    2
    21    25    24   ar
    22     1     2    1
    23     2     7   ar
    24     9     8    1
    25     9    10    2
    26     5     8    1
    27     5     6   ar
    28    32    29    1
    29     7     6   ar
    30    27    29    1
    31    27    28    1
    32    29    33    1
    33    30    28    1
    34    28    31    1
@<TRIPOS>MOLECULE
./../dock_file/temp/dfe1596b71ed1c82fb2a17eeeb2cf502/Camostat_Ligand_CID_2536:hmTMPRSS4:20230414002928/Camostat_Ligand_CID_2536:hmTMPRSS4_out_4.pdbqt
 33 34 0 0 0
SMALL
GASTEIGER

@<TRIPOS>ATOM
      1  O         16.7940   -1.4940   31.7630 O.3     1  LIG1       -0.2750
      2  C         15.9130   -2.3370   32.3660 C.ar    1  LIG1        0.0790
      3  C         15.7460   -3.6350   31.8830 C.ar    1  LIG1        0.0380
      4  C         14.8440   -4.4990   32.5010 C.ar    1  LIG1        0.0100
      5  C         14.1070   -4.0670   33.6040 C.ar    1  LIG1       -0.0490
      6  C         14.2740   -2.7690   34.0880 C.ar    1  LIG1        0.0100
      7  C         15.1780   -1.9040   33.4690 C.ar    1  LIG1        0.0380
      8  C         13.1320   -5.0000   34.2730 C.3     1  LIG1        0.1490
      9  C         13.8090   -6.0530   35.1190 C.2     1  LIG1        0.2630
     10  O         14.9970   -6.0720   35.4090 O.2     1  LIG1       -0.2650
     11  O         12.8830   -6.9890   35.5150 O.3     1  LIG1       -0.3120
     12  C         12.8540   -7.2940   36.8930 C.3     1  LIG1        0.2810
     13  C         12.2250   -6.1470   37.6560 C.2     1  LIG1        0.2430
     14  O         11.0530   -5.8460   37.4150 O.2     1  LIG1       -0.2710
     15  N         13.0150   -5.4960   38.6040 N.am    1  LIG1       -0.3590
     16  C         14.3990   -5.8320   38.9280 C.3     1  LIG1        0.1520
     17  C         12.4500   -4.3910   39.3700 C.3     1  LIG1        0.1520
     18  C         16.2220   -0.6540   30.8050 C.2     1  LIG1        0.2980
     19  O         15.2990   -0.9470   30.0600 O.2     1  LIG1       -0.2590
     20  C         16.8940    0.6700   30.7840 C.ar    1  LIG1        0.0400
     21  C         16.3910    1.7200   31.5520 C.ar    1  LIG1        0.0200
     22  C         17.0220    2.9630   31.5320 C.ar    1  LIG1        0.0330
     23  C         18.1560    3.1580   30.7440 C.ar    1  LIG1        0.0750
     24  C         18.6590    2.1090   29.9750 C.ar    1  LIG1        0.0330
     25  C         18.0280    0.8650   29.9940 C.ar    1  LIG1        0.0200
     26  N         18.7890    4.4050   30.7240 N.pl3   1  LIG1       -0.0660
     27  C         19.7620    4.6350   31.5720 C.cat   1  LIG1        0.6920
     28  N         20.2640    3.7710   32.5210 N.pl3   1  LIG1       -0.2330
     29  N         20.4100    5.8480   31.5850 N.pl3   1  LIG1       -0.2330
     30  H         19.8840    2.8690   32.6150 H       1  LIG1        0.1740
     31  H         21.0020    4.0590   33.1070 H       1  LIG1        0.1740
     32  H         20.1460    6.5540   30.9540 H       1  LIG1        0.1740
     33  H         21.1400    6.0090   32.2270 H       1  LIG1        0.1740
@<TRIPOS>BOND
     1    24    25   ar
     2    24    23   ar
     3    25    20   ar
     4    19    18    2
     5    26    23    1
     6    26    27    2
     7    23    22   ar
     8    20    18    1
     9    20    21   ar
    10    18     1    1
    11    32    29    1
    12    22    21   ar
    13    27    29    1
    14    27    28    1
    15    29    33    1
    16     1     2    1
    17     3     2   ar
    18     3     4   ar
    19     2     7   ar
    20     4     5   ar
    21    28    30    1
    22    28    31    1
    23     7     6   ar
    24     5     6   ar
    25     5     8    1
    26     8     9    1
    27     9    10    2
    28     9    11    1
    29    11    12    1
    30    12    13    1
    31    14    13    2
    32    13    15   am
    33    15    16    1
    34    15    17    1
@<TRIPOS>MOLECULE
./../dock_file/temp/dfe1596b71ed1c82fb2a17eeeb2cf502/Camostat_Ligand_CID_2536:hmTMPRSS4:20230414002928/Camostat_Ligand_CID_2536:hmTMPRSS4_out_4.pdbqt
 33 34 0 0 0
SMALL
GASTEIGER

@<TRIPOS>ATOM
      1  O         15.4270   -1.1610   35.5400 O.3     1  LIG1       -0.2750
      2  C         16.1970   -0.7990   34.4790 C.ar    1  LIG1        0.0790
      3  C         16.3470    0.5490   34.1510 C.ar    1  LIG1        0.0380
      4  C         17.1360    0.9190   33.0640 C.ar    1  LIG1        0.0100
      5  C         17.7790   -0.0580   32.3030 C.ar    1  LIG1       -0.0490
      6  C         17.6290   -1.4060   32.6300 C.ar    1  LIG1        0.0100
      7  C         16.8390   -1.7760   33.7180 C.ar    1  LIG1        0.0380
      8  C         18.6320    0.3420   31.1270 C.3     1  LIG1        0.1490
      9  C         17.8300    0.5700   29.8670 C.2     1  LIG1        0.2630
     10  O         16.9480   -0.1660   29.4450 O.2     1  LIG1       -0.2650
     11  O         18.2420    1.7350   29.2650 O.3     1  LIG1       -0.3120
     12  C         18.6880    2.7600   30.1290 C.3     1  LIG1        0.2810
     13  C         19.8660    3.4760   29.5020 C.2     1  LIG1        0.2430
     14  O         19.8200    3.7570   28.3010 O.2     1  LIG1       -0.2710
     15  N         20.9440    3.7880   30.3320 N.am    1  LIG1       -0.3590
     16  C         21.0290    3.4860   31.7590 C.3     1  LIG1        0.1520
     17  C         22.0970    4.4860   29.7770 C.3     1  LIG1        0.1520
     18  C         14.1060   -1.4750   35.2110 C.2     1  LIG1        0.2980
     19  O         13.2490   -0.6770   34.8620 O.2     1  LIG1       -0.2590
     20  C         13.8500   -2.9310   35.3540 C.ar    1  LIG1        0.0400
     21  C         13.9570   -3.5380   36.6050 C.ar    1  LIG1        0.0200
     22  C         13.7160   -4.9050   36.7390 C.ar    1  LIG1        0.0330
     23  C         13.3700   -5.6660   35.6230 C.ar    1  LIG1        0.0750
     24  C         13.2630   -5.0590   34.3710 C.ar    1  LIG1        0.0330
     25  C         13.5040   -3.6910   34.2370 C.ar    1  LIG1        0.0200
     26  N         13.1290   -7.0370   35.7570 N.pl3   1  LIG1       -0.0660
     27  C         11.9550   -7.4350   36.1880 C.cat   1  LIG1        0.6920
     28  N         10.8830   -6.6440   36.5400 N.pl3   1  LIG1       -0.2330
     29  N         11.6780   -8.7740   36.3340 N.pl3   1  LIG1       -0.2330
     30  H         10.9540   -5.6650   36.4800 H       1  LIG1        0.1740
     31  H         10.0470   -7.0600   36.8520 H       1  LIG1        0.1740
     32  H         12.3630   -9.4450   36.1140 H       1  LIG1        0.1740
     33  H         10.7930   -9.0600   36.6570 H       1  LIG1        0.1740
@<TRIPOS>BOND
     1    14    13    2
     2    11     9    1
     3    11    12    1
     4    10     9    2
     5    13    12    1
     6    13    15   am
     7    17    15    1
     8     9     8    1
     9    15    16    1
    10     8     5    1
    11     5     6   ar
    12     5     4   ar
    13     6     7   ar
    14     4     3   ar
    15     7     2   ar
    16     3     2   ar
    17    25    24   ar
    18    25    20   ar
    19    24    23   ar
    20     2     1    1
    21    19    18    2
    22    18    20    1
    23    18     1    1
    24    20    21   ar
    25    23    26    1
    26    23    22   ar
    27    26    27    2
    28    32    29    1
    29    27    29    1
    30    27    28    1
    31    29    33    1
    32    30    28    1
    33    28    31    1
    34    21    22   ar
