@<TRIPOS>MOLECULE
./../dock_file/temp/dfe1596b71ed1c82fb2a17eeeb2cf502/Camostat_Ligand_CID_2536:hmTMPRSS4:20230414002928/Camostat_Ligand_CID_2536:hmTMPRSS4_out_1.pdbqt
 33 34 0 0 0
SMALL
GASTEIGER

@<TRIPOS>ATOM
      1  O          3.7160  -14.0800   17.1000 O.3     1  LIG1       -0.2750
      2  C          2.6050  -13.7540   17.8150 C.ar    1  LIG1        0.0790
      3  C          1.3580  -13.7210   17.1910 C.ar    1  LIG1        0.0380
      4  C          0.2200  -13.3870   17.9250 C.ar    1  LIG1        0.0100
      5  C          0.3280  -13.0860   19.2830 C.ar    1  LIG1       -0.0490
      6  C          1.5760  -13.1190   19.9070 C.ar    1  LIG1        0.0100
      7  C          2.7140  -13.4540   19.1730 C.ar    1  LIG1        0.0380
      8  C         -0.9010  -12.7250   20.0760 C.3     1  LIG1        0.1490
      9  C         -1.8650  -13.8790   20.2260 C.2     1  LIG1        0.2630
     10  O         -3.0170  -13.8970   19.8160 O.2     1  LIG1       -0.2650
     11  O         -1.2470  -14.9090   20.8950 O.3     1  LIG1       -0.3120
     12  C         -1.5500  -16.2140   20.4470 C.3     1  LIG1        0.2810
     13  C         -0.6640  -16.5670   19.2710 C.2     1  LIG1        0.2430
     14  O          0.5560  -16.6350   19.4460 O.2     1  LIG1       -0.2710
     15  N         -1.2880  -16.8070   18.0460 N.am    1  LIG1       -0.3590
     16  C         -2.7280  -16.7510   17.8040 C.3     1  LIG1        0.1520
     17  C         -0.4780  -17.1590   16.8870 C.3     1  LIG1        0.1520
     18  C          4.2370  -15.3430   17.3900 C.2     1  LIG1        0.2980
     19  O          4.9280  -15.6240   18.3570 O.2     1  LIG1       -0.2590
     20  C          3.8550  -16.3320   16.3500 C.ar    1  LIG1        0.0400
     21  C          4.1780  -16.0980   15.0140 C.ar    1  LIG1        0.0200
     22  C          3.8200  -17.0270   14.0370 C.ar    1  LIG1        0.0330
     23  C          3.1370  -18.1890   14.3960 C.ar    1  LIG1        0.0750
     24  C          2.8130  -18.4230   15.7320 C.ar    1  LIG1        0.0330
     25  C          3.1710  -17.4940   16.7090 C.ar    1  LIG1        0.0200
     26  N          2.7780  -19.1210   13.4160 N.pl3   1  LIG1       -0.0660
     27  C          1.6880  -18.9160   12.7160 C.cat   1  LIG1        0.6920
     28  N          0.8120  -17.8570   12.8260 N.pl3   1  LIG1       -0.2330
     29  N          1.3000  -19.8070   11.7440 N.pl3   1  LIG1       -0.2330
     30  H          0.9780  -17.1480   13.4880 H       1  LIG1        0.1740
     31  H          0.0210  -17.8110   12.2410 H       1  LIG1        0.1740
     32  H          1.8420  -20.6080   11.5660 H       1  LIG1        0.1740
     33  H          0.4790  -19.6420   11.2250 H       1  LIG1        0.1740
@<TRIPOS>BOND
     1    33    29    1
     2    32    29    1
     3    29    27    1
     4    31    28    1
     5    27    28    1
     6    27    26    2
     7    28    30    1
     8    26    23    1
     9    22    23   ar
    10    22    21   ar
    11    23    24   ar
    12    21    20   ar
    13    24    25   ar
    14    20    25   ar
    15    20    18    1
    16    17    15    1
    17     1    18    1
    18     1     2    1
    19     3     2   ar
    20     3     4   ar
    21    18    19    2
    22    16    15    1
    23     2     7   ar
    24     4     5   ar
    25    15    13   am
    26     7     6   ar
    27    13    14    2
    28    13    12    1
    29     5     6   ar
    30     5     8    1
    31    10     9    2
    32     8     9    1
    33     9    11    1
    34    12    11    1
@<TRIPOS>MOLECULE
./../dock_file/temp/dfe1596b71ed1c82fb2a17eeeb2cf502/Camostat_Ligand_CID_2536:hmTMPRSS4:20230414002928/Camostat_Ligand_CID_2536:hmTMPRSS4_out_1.pdbqt
 33 34 0 0 0
SMALL
GASTEIGER

@<TRIPOS>ATOM
      1  O          3.7370  -14.0660   17.1570 O.3     1  LIG1       -0.2750
      2  C          2.6040  -13.7470   17.8390 C.ar    1  LIG1        0.0790
      3  C          1.3730  -13.7400   17.1830 C.ar    1  LIG1        0.0380
      4  C          0.2120  -13.4130   17.8820 C.ar    1  LIG1        0.0100
      5  C          0.2800  -13.0950   19.2390 C.ar    1  LIG1       -0.0490
      6  C          1.5120  -13.1020   19.8950 C.ar    1  LIG1        0.0100
      7  C          2.6730  -13.4290   19.1950 C.ar    1  LIG1        0.0380
      8  C         -0.9740  -12.7420   19.9950 C.3     1  LIG1        0.1490
      9  C         -1.9660  -13.8790   20.0540 C.2     1  LIG1        0.2630
     10  O         -2.9330  -14.0150   19.3170 O.2     1  LIG1       -0.2650
     11  O         -1.6150  -14.7430   21.0640 O.3     1  LIG1       -0.3120
     12  C         -1.3730  -16.0810   20.6850 C.3     1  LIG1        0.2810
     13  C         -0.1960  -16.6270   21.4660 C.2     1  LIG1        0.2430
     14  O          0.9350  -16.2040   21.2080 O.2     1  LIG1       -0.2710
     15  N         -0.4630  -17.5790   22.4500 N.am    1  LIG1       -0.3590
     16  C         -1.7870  -18.0920   22.7950 C.3     1  LIG1        0.1520
     17  C          0.6370  -18.1270   23.2340 C.3     1  LIG1        0.1520
     18  C          4.2670  -15.3180   17.4760 C.2     1  LIG1        0.2980
     19  O          4.9730  -15.5690   18.4410 O.2     1  LIG1       -0.2590
     20  C          3.8760  -16.3370   16.4690 C.ar    1  LIG1        0.0400
     21  C          4.4450  -16.3140   15.1960 C.ar    1  LIG1        0.0200
     22  C          4.0780  -17.2720   14.2500 C.ar    1  LIG1        0.0330
     23  C          3.1410  -18.2520   14.5770 C.ar    1  LIG1        0.0750
     24  C          2.5710  -18.2750   15.8500 C.ar    1  LIG1        0.0330
     25  C          2.9380  -17.3180   16.7960 C.ar    1  LIG1        0.0200
     26  N          2.7730  -19.2120   13.6290 N.pl3   1  LIG1       -0.0660
     27  C          1.7460  -18.9710   12.8490 C.cat   1  LIG1        0.6920
     28  N          0.9490  -17.8470   12.8420 N.pl3   1  LIG1       -0.2330
     29  N          1.3520  -19.8890   11.9030 N.pl3   1  LIG1       -0.2330
     30  H          1.1260  -17.1140   13.4730 H       1  LIG1        0.1740
     31  H          0.2000  -17.7790   12.2050 H       1  LIG1        0.1740
     32  H          1.8420  -20.7370   11.8060 H       1  LIG1        0.1740
     33  H          0.5800  -19.6960   11.3230 H       1  LIG1        0.1740
@<TRIPOS>BOND
     1    33    29    1
     2    32    29    1
     3    29    27    1
     4    31    28    1
     5    28    27    1
     6    28    30    1
     7    27    26    2
     8    26    23    1
     9    22    23   ar
    10    22    21   ar
    11    23    24   ar
    12    21    20   ar
    13    24    25   ar
    14    20    25   ar
    15    20    18    1
    16     1    18    1
    17     1     2    1
    18     3     2   ar
    19     3     4   ar
    20    18    19    2
    21     2     7   ar
    22     4     5   ar
    23     7     6   ar
    24     5     6   ar
    25     5     8    1
    26    10     9    2
    27     8     9    1
    28     9    11    1
    29    12    11    1
    30    12    13    1
    31    14    13    2
    32    13    15   am
    33    15    16    1
    34    15    17    1
@<TRIPOS>MOLECULE
./../dock_file/temp/dfe1596b71ed1c82fb2a17eeeb2cf502/Camostat_Ligand_CID_2536:hmTMPRSS4:20230414002928/Camostat_Ligand_CID_2536:hmTMPRSS4_out_1.pdbqt
 33 34 0 0 0
SMALL
GASTEIGER

@<TRIPOS>ATOM
      1  O          3.6570  -14.0920   17.0920 O.3     1  LIG1       -0.2750
      2  C          2.5720  -13.7580   17.8430 C.ar    1  LIG1        0.0790
      3  C          1.3040  -13.7260   17.2610 C.ar    1  LIG1        0.0380
      4  C          0.1930  -13.3830   18.0300 C.ar    1  LIG1        0.0100
      5  C          0.3490  -13.0720   19.3820 C.ar    1  LIG1       -0.0490
      6  C          1.6170  -13.1040   19.9630 C.ar    1  LIG1        0.0100
      7  C          2.7290  -13.4470   19.1930 C.ar    1  LIG1        0.0380
      8  C         -0.8520  -12.7020   20.2130 C.3     1  LIG1        0.1490
      9  C         -1.7900  -13.8630   20.4440 C.2     1  LIG1        0.2630
     10  O         -1.4480  -15.0180   20.6580 O.2     1  LIG1       -0.2650
     11  O         -3.0900  -13.4230   20.3790 O.3     1  LIG1       -0.3120
     12  C         -3.3910  -12.2520   21.1090 C.3     1  LIG1        0.2810
     13  C         -4.3980  -12.5730   22.1940 C.2     1  LIG1        0.2430
     14  O         -4.0250  -13.2160   23.1790 O.2     1  LIG1       -0.2710
     15  N         -5.7020  -12.1080   22.0170 N.am    1  LIG1       -0.3590
     16  C         -6.1770  -11.3320   20.8750 C.3     1  LIG1        0.1520
     17  C         -6.7040  -12.3840   23.0380 C.3     1  LIG1        0.1520
     18  C          4.1970  -15.3460   17.3900 C.2     1  LIG1        0.2980
     19  O          4.9140  -15.6050   18.3450 O.2     1  LIG1       -0.2590
     20  C          3.8030  -16.3540   16.3730 C.ar    1  LIG1        0.0400
     21  C          4.2720  -16.2460   15.0650 C.ar    1  LIG1        0.0200
     22  C          3.9020  -17.1930   14.1100 C.ar    1  LIG1        0.0330
     23  C          3.0610  -18.2480   14.4640 C.ar    1  LIG1        0.0750
     24  C          2.5910  -18.3560   15.7730 C.ar    1  LIG1        0.0330
     25  C          2.9610  -17.4090   16.7270 C.ar    1  LIG1        0.0200
     26  N          2.6890  -19.1980   13.5060 N.pl3   1  LIG1       -0.0660
     27  C          1.6470  -18.9580   12.7470 C.cat   1  LIG1        0.6920
     28  N          0.8360  -17.8440   12.7710 N.pl3   1  LIG1       -0.2330
     29  N          1.2490  -19.8660   11.7940 N.pl3   1  LIG1       -0.2330
     30  H          1.0140  -17.1190   13.4110 H       1  LIG1        0.1740
     31  H          0.0760  -17.7760   12.1480 H       1  LIG1        0.1740
     32  H          1.7480  -20.7050   11.6750 H       1  LIG1        0.1740
     33  H          0.4650  -19.6740   11.2290 H       1  LIG1        0.1740
@<TRIPOS>BOND
     1    33    29    1
     2    32    29    1
     3    29    27    1
     4    31    28    1
     5    27    28    1
     6    27    26    2
     7    28    30    1
     8    26    23    1
     9    22    23   ar
    10    22    21   ar
    11    23    24   ar
    12    21    20   ar
    13    24    25   ar
    14    20    25   ar
    15    20    18    1
    16     1    18    1
    17     1     2    1
    18     3     2   ar
    19     3     4   ar
    20    18    19    2
    21     2     7   ar
    22     4     5   ar
    23     7     6   ar
    24     5     6   ar
    25     5     8    1
    26     8     9    1
    27    11     9    1
    28    11    12    1
    29     9    10    2
    30    16    15    1
    31    12    13    1
    32    15    13   am
    33    15    17    1
    34    13    14    2
@<TRIPOS>MOLECULE
./../dock_file/temp/dfe1596b71ed1c82fb2a17eeeb2cf502/Camostat_Ligand_CID_2536:hmTMPRSS4:20230414002928/Camostat_Ligand_CID_2536:hmTMPRSS4_out_1.pdbqt
 33 34 0 0 0
SMALL
GASTEIGER

@<TRIPOS>ATOM
      1  O         -0.5450  -12.8960   19.3450 O.3     1  LIG1       -0.2750
      2  C          0.6100  -13.2870   18.7420 C.ar    1  LIG1        0.0790
      3  C          0.6470  -13.4760   17.3610 C.ar    1  LIG1        0.0380
      4  C          1.8310  -13.8770   16.7430 C.ar    1  LIG1        0.0100
      5  C          2.9790  -14.0890   17.5070 C.ar    1  LIG1       -0.0490
      6  C          2.9420  -13.9010   18.8890 C.ar    1  LIG1        0.0100
      7  C          1.7580  -13.4990   19.5060 C.ar    1  LIG1        0.0380
      8  C          4.2590  -14.5230   16.8400 C.3     1  LIG1        0.1490
      9  C          4.1940  -15.9330   16.3020 C.2     1  LIG1        0.2630
     10  O          4.4130  -16.2610   15.1440 O.2     1  LIG1       -0.2650
     11  O          3.8520  -16.7960   17.3150 O.3     1  LIG1       -0.3120
     12  C          2.9480  -17.8280   16.9790 C.3     1  LIG1        0.2810
     13  C          1.5440  -17.4270   17.3810 C.2     1  LIG1        0.2430
     14  O          1.2940  -17.2620   18.5780 O.2     1  LIG1       -0.2710
     15  N          0.6080  -17.2560   16.3610 N.am    1  LIG1       -0.3590
     16  C          0.8690  -17.4270   14.9330 C.3     1  LIG1        0.1520
     17  C         -0.7540  -16.8620   16.6980 C.3     1  LIG1        0.1520
     18  C         -1.3480  -13.9490   19.7900 C.2     1  LIG1        0.2980
     19  O         -1.0310  -15.1290   19.8050 O.2     1  LIG1       -0.2590
     20  C         -2.6760  -13.4590   20.2390 C.ar    1  LIG1        0.0400
     21  C         -3.8220  -13.7910   19.5170 C.ar    1  LIG1        0.0200
     22  C         -5.0690  -13.3300   19.9400 C.ar    1  LIG1        0.0330
     23  C         -5.1700  -12.5370   21.0820 C.ar    1  LIG1        0.0750
     24  C         -4.0230  -12.2050   21.8040 C.ar    1  LIG1        0.0330
     25  C         -2.7760  -12.6650   21.3820 C.ar    1  LIG1        0.0200
     26  N         -6.4210  -12.0750   21.5060 N.pl3   1  LIG1       -0.0660
     27  C         -6.8520  -10.9180   21.0630 C.cat   1  LIG1        0.6920
     28  N         -6.2050  -10.0610   20.1990 N.pl3   1  LIG1       -0.2330
     29  N         -8.0760  -10.4290   21.4550 N.pl3   1  LIG1       -0.2330
     30  H         -5.3180  -10.2960   19.8450 H       1  LIG1        0.1740
     31  H         -6.6320   -9.2130   19.9370 H       1  LIG1        0.1740
     32  H         -8.6390  -10.9480   22.0730 H       1  LIG1        0.1740
     33  H         -8.3890   -9.5590   21.1160 H       1  LIG1        0.1740
@<TRIPOS>BOND
     1    16    15    1
     2    10     9    2
     3     9     8    1
     4     9    11    1
     5    15    17    1
     6    15    13   am
     7     4     3   ar
     8     4     5   ar
     9     8     5    1
    10    12    11    1
    11    12    13    1
    12     3     2   ar
    13    13    14    2
    14     5     6   ar
    15     2     1    1
    16     2     7   ar
    17     6     7   ar
    18     1    18    1
    19    21    22   ar
    20    21    20   ar
    21    18    19    2
    22    18    20    1
    23    30    28    1
    24    31    28    1
    25    22    23   ar
    26    28    27    1
    27    20    25   ar
    28    27    29    1
    29    27    26    2
    30    23    26    1
    31    23    24   ar
    32    33    29    1
    33    25    24   ar
    34    29    32    1
@<TRIPOS>MOLECULE
./../dock_file/temp/dfe1596b71ed1c82fb2a17eeeb2cf502/Camostat_Ligand_CID_2536:hmTMPRSS4:20230414002928/Camostat_Ligand_CID_2536:hmTMPRSS4_out_1.pdbqt
 33 34 0 0 0
SMALL
GASTEIGER

@<TRIPOS>ATOM
      1  O          1.9580  -13.2680   19.1500 O.3     1  LIG1       -0.2750
      2  C          2.3450  -13.8820   17.9990 C.ar    1  LIG1        0.0790
      3  C          1.4370  -14.0380   16.9510 C.ar    1  LIG1        0.0380
      4  C          1.8340  -14.6660   15.7720 C.ar    1  LIG1        0.0100
      5  C          3.1410  -15.1380   15.6380 C.ar    1  LIG1       -0.0490
      6  C          4.0490  -14.9810   16.6860 C.ar    1  LIG1        0.0100
      7  C          3.6510  -14.3530   17.8660 C.ar    1  LIG1        0.0380
      8  C          3.5700  -15.8170   14.3640 C.3     1  LIG1        0.1490
      9  C          2.9430  -17.1790   14.1810 C.2     1  LIG1        0.2630
     10  O          1.9840  -17.4270   13.4640 O.2     1  LIG1       -0.2650
     11  O          3.6170  -18.1010   14.9470 O.3     1  LIG1       -0.3120
     12  C          2.8200  -19.0330   15.6480 C.3     1  LIG1        0.2810
     13  C          2.4170  -18.4520   16.9870 C.2     1  LIG1        0.2430
     14  O          3.2870  -18.2770   17.8440 O.2     1  LIG1       -0.2710
     15  N          1.0700  -18.1380   17.1720 N.am    1  LIG1       -0.3590
     16  C          0.0140  -18.3170   16.1770 C.3     1  LIG1        0.1520
     17  C          0.6350  -17.5690   18.4410 C.3     1  LIG1        0.1520
     18  C          1.3140  -14.1090   20.0610 C.2     1  LIG1        0.2980
     19  O          1.8390  -15.0170   20.6880 O.2     1  LIG1       -0.2590
     20  C         -0.1290  -13.7750   20.1710 C.ar    1  LIG1        0.0400
     21  C         -1.0930  -14.7400   19.8830 C.ar    1  LIG1        0.0200
     22  C         -2.4480  -14.4260   19.9870 C.ar    1  LIG1        0.0330
     23  C         -2.8390  -13.1450   20.3770 C.ar    1  LIG1        0.0750
     24  C         -1.8750  -12.1790   20.6650 C.ar    1  LIG1        0.0330
     25  C         -0.5200  -12.4930   20.5610 C.ar    1  LIG1        0.0200
     26  N         -4.1980  -12.8300   20.4810 N.pl3   1  LIG1       -0.0660
     27  C         -4.8190  -13.0660   21.6120 C.cat   1  LIG1        0.6920
     28  N         -4.2840  -13.6080   22.7610 N.pl3   1  LIG1       -0.2330
     29  N         -6.1540  -12.7700   21.7550 N.pl3   1  LIG1       -0.2330
     30  H         -3.3340  -13.8640   22.7880 H       1  LIG1        0.1740
     31  H         -4.8530  -13.7390   23.5540 H       1  LIG1        0.1740
     32  H         -6.6540  -12.3770   21.0050 H       1  LIG1        0.1740
     33  H         -6.6090  -12.9520   22.6100 H       1  LIG1        0.1740
@<TRIPOS>BOND
     1    10     9    2
     2     9     8    1
     3     9    11    1
     4     8     5    1
     5    11    12    1
     6     5     4   ar
     7     5     6   ar
     8    12    13    1
     9     4     3   ar
    10    16    15    1
    11     6     7   ar
    12     3     2   ar
    13    13    15   am
    14    13    14    2
    15    15    17    1
    16     7     2   ar
    17     2     1    1
    18     1    18    1
    19    21    22   ar
    20    21    20   ar
    21    22    23   ar
    22    18    20    1
    23    18    19    2
    24    20    25   ar
    25    23    26    1
    26    23    24   ar
    27    26    27    2
    28    25    24   ar
    29    32    29    1
    30    27    29    1
    31    27    28    1
    32    29    33    1
    33    28    30    1
    34    28    31    1
@<TRIPOS>MOLECULE
./../dock_file/temp/dfe1596b71ed1c82fb2a17eeeb2cf502/Camostat_Ligand_CID_2536:hmTMPRSS4:20230414002928/Camostat_Ligand_CID_2536:hmTMPRSS4_out_1.pdbqt
 33 34 0 0 0
SMALL
GASTEIGER

@<TRIPOS>ATOM
      1  O          3.1780  -14.3600   16.2520 O.3     1  LIG1       -0.2750
      2  C          3.1240  -15.5450   15.5850 C.ar    1  LIG1        0.0790
      3  C          1.8900  -16.1200   15.2810 C.ar    1  LIG1        0.0380
      4  C          1.8360  -17.3340   14.5970 C.ar    1  LIG1        0.0100
      5  C          3.0160  -17.9740   14.2170 C.ar    1  LIG1       -0.0490
      6  C          4.2500  -17.3990   14.5210 C.ar    1  LIG1        0.0100
      7  C          4.3040  -16.1840   15.2050 C.ar    1  LIG1        0.0380
      8  C          2.9580  -19.2850   13.4780 C.3     1  LIG1        0.1490
      9  C          2.3630  -20.4010   14.3050 C.2     1  LIG1        0.2630
     10  O          1.4170  -21.1020   13.9750 O.2     1  LIG1       -0.2650
     11  O          3.0520  -20.5110   15.4900 O.3     1  LIG1       -0.3120
     12  C          2.2800  -20.8010   16.6360 C.3     1  LIG1        0.2810
     13  C          2.1660  -19.5620   17.5000 C.2     1  LIG1        0.2430
     14  O          3.1790  -19.1340   18.0600 O.2     1  LIG1       -0.2710
     15  N          0.9090  -18.9650   17.6050 N.am    1  LIG1       -0.3590
     16  C         -0.3090  -19.4330   16.9460 C.3     1  LIG1        0.1520
     17  C          0.7510  -17.7660   18.4180 C.3     1  LIG1        0.1520
     18  C          3.2950  -14.4860   17.6390 C.2     1  LIG1        0.2980
     19  O          4.2290  -15.0060   18.2310 O.2     1  LIG1       -0.2590
     20  C          2.1130  -13.9120   18.3310 C.ar    1  LIG1        0.0400
     21  C          2.2280  -13.4510   19.6410 C.ar    1  LIG1        0.0200
     22  C          1.1170  -12.9110   20.2910 C.ar    1  LIG1        0.0330
     23  C         -0.1080  -12.8350   19.6300 C.ar    1  LIG1        0.0750
     24  C         -0.2240  -13.2970   18.3180 C.ar    1  LIG1        0.0330
     25  C          0.8870  -13.8360   17.6690 C.ar    1  LIG1        0.0200
     26  N         -1.2220  -12.2940   20.2810 N.pl3   1  LIG1       -0.0660
     27  C         -1.9740  -13.0830   21.0120 C.cat   1  LIG1        0.6920
     28  N         -1.8010  -14.4330   21.2310 N.pl3   1  LIG1       -0.2330
     29  N         -3.0770  -12.5910   21.6690 N.pl3   1  LIG1       -0.2330
     30  H         -1.0460  -14.9060   20.8150 H       1  LIG1        0.1740
     31  H         -2.4360  -14.9230   21.8020 H       1  LIG1        0.1740
     32  H         -3.3100  -11.6380   21.5940 H       1  LIG1        0.1740
     33  H         -3.6330  -13.1930   22.2150 H       1  LIG1        0.1740
@<TRIPOS>BOND
     1     8     5    1
     2     8     9    1
     3    10     9    2
     4     5     6   ar
     5     5     4   ar
     6     9    11    1
     7     6     7   ar
     8     4     3   ar
     9     7     2   ar
    10     3     2   ar
    11    11    12    1
    12     2     1    1
    13     1    18    1
    14    12    13    1
    15    16    15    1
    16    13    15   am
    17    13    14    2
    18    15    17    1
    19    18    19    2
    20    18    20    1
    21    25    24   ar
    22    25    20   ar
    23    24    23   ar
    24    20    21   ar
    25    23    26    1
    26    23    22   ar
    27    21    22   ar
    28    26    27    2
    29    30    28    1
    30    27    28    1
    31    27    29    1
    32    28    31    1
    33    32    29    1
    34    29    33    1
@<TRIPOS>MOLECULE
./../dock_file/temp/dfe1596b71ed1c82fb2a17eeeb2cf502/Camostat_Ligand_CID_2536:hmTMPRSS4:20230414002928/Camostat_Ligand_CID_2536:hmTMPRSS4_out_1.pdbqt
 33 34 0 0 0
SMALL
GASTEIGER

@<TRIPOS>ATOM
      1  O          3.4100  -14.0850   16.8070 O.3     1  LIG1       -0.2750
      2  C          2.4080  -13.7380   17.6600 C.ar    1  LIG1        0.0790
      3  C          2.6900  -13.4870   19.0030 C.ar    1  LIG1        0.0380
      4  C          1.6630  -13.1320   19.8760 C.ar    1  LIG1        0.0100
      5  C          0.3530  -13.0260   19.4070 C.ar    1  LIG1       -0.0490
      6  C          0.0710  -13.2780   18.0640 C.ar    1  LIG1        0.0100
      7  C          1.0990  -13.6330   17.1900 C.ar    1  LIG1        0.0380
      8  C         -0.7570  -12.6420   20.3510 C.3     1  LIG1        0.1490
      9  C         -1.8890  -13.6430   20.3670 C.2     1  LIG1        0.2630
     10  O         -3.0340  -13.4230   19.9980 O.2     1  LIG1       -0.2650
     11  O         -1.4340  -14.8430   20.8600 O.3     1  LIG1       -0.3120
     12  C         -1.6530  -15.9750   20.0460 C.3     1  LIG1        0.2810
     13  C         -0.3250  -16.6050   19.6810 C.2     1  LIG1        0.2430
     14  O          0.6390  -16.4340   20.4320 O.2     1  LIG1       -0.2710
     15  N         -0.2720  -17.3570   18.5070 N.am    1  LIG1       -0.3590
     16  C         -1.3940  -17.5940   17.6010 C.3     1  LIG1        0.1520
     17  C          0.9820  -17.9900   18.1180 C.3     1  LIG1        0.1520
     18  C          3.0240  -14.1600   15.4660 C.2     1  LIG1        0.2980
     19  O          2.7090  -13.2140   14.7610 O.2     1  LIG1       -0.2590
     20  C          3.0230  -15.5660   14.9870 C.ar    1  LIG1        0.0400
     21  C          4.2210  -16.1790   14.6220 C.ar    1  LIG1        0.0200
     22  C          4.2210  -17.4990   14.1730 C.ar    1  LIG1        0.0330
     23  C          3.0220  -18.2070   14.0880 C.ar    1  LIG1        0.0750
     24  C          1.8230  -17.5940   14.4530 C.ar    1  LIG1        0.0330
     25  C          1.8240  -16.2740   14.9020 C.ar    1  LIG1        0.0200
     26  N          3.0220  -19.5310   13.6370 N.pl3   1  LIG1       -0.0660
     27  C          2.9380  -20.5000   14.5170 C.cat   1  LIG1        0.6920
     28  N          2.8480  -20.3780   15.8870 N.pl3   1  LIG1       -0.2330
     29  N          2.9350  -21.8150   14.1160 N.pl3   1  LIG1       -0.2330
     30  H          2.8410  -19.4860   16.3020 H       1  LIG1        0.1740
     31  H          2.7910  -21.1850   16.4500 H       1  LIG1        0.1740
     32  H          2.9940  -22.0380   13.1590 H       1  LIG1        0.1740
     33  H          2.8710  -22.5340   14.7860 H       1  LIG1        0.1740
@<TRIPOS>BOND
     1    32    29    1
     2    26    23    1
     3    26    27    2
     4    23    22   ar
     5    23    24   ar
     6    29    27    1
     7    29    33    1
     8    22    21   ar
     9    24    25   ar
    10    27    28    1
    11    21    20   ar
    12    19    18    2
    13    25    20   ar
    14    20    18    1
    15    18     1    1
    16    28    30    1
    17    28    31    1
    18     1     2    1
    19     7     2   ar
    20     7     6   ar
    21    16    15    1
    22     2     3   ar
    23     6     5   ar
    24    17    15    1
    25    15    13   am
    26     3     4   ar
    27     5     4   ar
    28     5     8    1
    29    13    12    1
    30    13    14    2
    31    10     9    2
    32    12    11    1
    33     8     9    1
    34     9    11    1
@<TRIPOS>MOLECULE
./../dock_file/temp/dfe1596b71ed1c82fb2a17eeeb2cf502/Camostat_Ligand_CID_2536:hmTMPRSS4:20230414002928/Camostat_Ligand_CID_2536:hmTMPRSS4_out_1.pdbqt
 33 34 0 0 0
SMALL
GASTEIGER

@<TRIPOS>ATOM
      1  O         -1.0920   -5.9830    7.8750 O.3     1  LIG1       -0.2750
      2  C         -0.2180   -6.8470    7.2900 C.ar    1  LIG1        0.0790
      3  C          0.6500   -7.6020    8.0790 C.ar    1  LIG1        0.0380
      4  C          1.5450   -8.4870    7.4800 C.ar    1  LIG1        0.0100
      5  C          1.5730   -8.6190    6.0920 C.ar    1  LIG1       -0.0490
      6  C          0.7060   -7.8630    5.3030 C.ar    1  LIG1        0.0100
      7  C         -0.1900   -6.9780    5.9020 C.ar    1  LIG1        0.0380
      8  C          2.5410   -9.5750    5.4440 C.3     1  LIG1        0.1490
      9  C          2.4030  -10.9890    5.9570 C.2     1  LIG1        0.2630
     10  O          3.2730  -11.6180    6.5450 O.2     1  LIG1       -0.2650
     11  O          1.1470  -11.4650    5.6630 O.3     1  LIG1       -0.3120
     12  C          0.5410  -12.2770    6.6460 C.3     1  LIG1        0.2810
     13  C         -0.8830  -11.8190    6.8790 C.2     1  LIG1        0.2430
     14  O         -1.1690  -10.6380    6.6630 O.2     1  LIG1       -0.2710
     15  N         -1.8010  -12.7730    7.3200 N.am    1  LIG1       -0.3590
     16  C         -1.5050  -14.1810    7.5710 C.3     1  LIG1        0.1520
     17  C         -3.1860  -12.3810    7.5500 C.3     1  LIG1        0.1520
     18  C         -2.0090   -5.4090    6.9910 C.2     1  LIG1        0.2980
     19  O         -1.7400   -4.6260    6.0930 O.2     1  LIG1       -0.2590
     20  C         -3.3930   -5.8600    7.2880 C.ar    1  LIG1        0.0400
     21  C         -4.4160   -4.9230    7.4310 C.ar    1  LIG1        0.0200
     22  C         -5.7160   -5.3470    7.7090 C.ar    1  LIG1        0.0330
     23  C         -5.9920   -6.7070    7.8460 C.ar    1  LIG1        0.0750
     24  C         -4.9680   -7.6450    7.7040 C.ar    1  LIG1        0.0330
     25  C         -3.6690   -7.2210    7.4250 C.ar    1  LIG1        0.0200
     26  N         -7.2950   -7.1320    8.1260 N.pl3   1  LIG1       -0.0660
     27  C         -8.1020   -7.3990    7.1270 C.cat   1  LIG1        0.6920
     28  N         -7.8220   -7.3110    5.7810 N.pl3   1  LIG1       -0.2330
     29  N         -9.3910   -7.8190    7.3590 N.pl3   1  LIG1       -0.2330
     30  H         -6.9310   -7.0200    5.4810 H       1  LIG1        0.1740
     31  H         -8.5150   -7.5380    5.1180 H       1  LIG1        0.1740
     32  H         -9.7160   -7.9240    8.2820 H       1  LIG1        0.1740
     33  H         -9.9870   -8.0170    6.6010 H       1  LIG1        0.1740
@<TRIPOS>BOND
     1    31    28    1
     2     6     7   ar
     3     6     5   ar
     4     8     9    1
     5     8     5    1
     6    30    28    1
     7    11     9    1
     8    11    12    1
     9    28    27    1
    10     7     2   ar
    11     9    10    2
    12     5     4   ar
    13    19    18    2
    14    33    29    1
    15    12    13    1
    16    14    13    2
    17    13    15   am
    18    18    20    1
    19    18     1    1
    20    27    29    1
    21    27    26    2
    22    20    25   ar
    23    20    21   ar
    24     2     1    1
    25     2     3   ar
    26    15    17    1
    27    15    16    1
    28    29    32    1
    29    25    24   ar
    30    21    22   ar
    31     4     3   ar
    32    24    23   ar
    33    22    23   ar
    34    23    26    1
@<TRIPOS>MOLECULE
./../dock_file/temp/dfe1596b71ed1c82fb2a17eeeb2cf502/Camostat_Ligand_CID_2536:hmTMPRSS4:20230414002928/Camostat_Ligand_CID_2536:hmTMPRSS4_out_1.pdbqt
 33 34 0 0 0
SMALL
GASTEIGER

@<TRIPOS>ATOM
      1  O         -0.1240  -13.0990   18.8620 O.3     1  LIG1       -0.2750
      2  C         -1.1440  -13.2080   19.7560 C.ar    1  LIG1        0.0790
      3  C         -1.4510  -12.1400   20.6000 C.ar    1  LIG1        0.0380
      4  C         -2.4960  -12.2530   21.5150 C.ar    1  LIG1        0.0100
      5  C         -3.2370  -13.4330   21.5870 C.ar    1  LIG1       -0.0490
      6  C         -2.9300  -14.5010   20.7440 C.ar    1  LIG1        0.0100
      7  C         -1.8840  -14.3890   19.8280 C.ar    1  LIG1        0.0380
      8  C         -4.3670  -13.5550   22.5760 C.3     1  LIG1        0.1490
      9  C         -5.3630  -12.4250   22.4750 C.2     1  LIG1        0.2630
     10  O         -5.6690  -11.6650   23.3830 O.2     1  LIG1       -0.2650
     11  O         -5.8760  -12.3780   21.2000 O.3     1  LIG1       -0.3120
     12  C         -7.2090  -11.9280   21.0790 C.3     1  LIG1        0.2810
     13  C         -7.3210  -10.9750   19.9080 C.2     1  LIG1        0.2430
     14  O         -7.3420  -11.4390   18.7650 O.2     1  LIG1       -0.2710
     15  N         -7.4050   -9.6120   20.1940 N.am    1  LIG1       -0.3590
     16  C         -7.3990   -9.0260   21.5330 C.3     1  LIG1        0.1520
     17  C         -7.5230   -8.6560   19.1010 C.3     1  LIG1        0.1520
     18  C          1.1350  -13.4030   19.3870 C.2     1  LIG1        0.2980
     19  O          1.5830  -12.9930   20.4470 O.2     1  LIG1       -0.2590
     20  C          1.8940  -14.2950   18.4740 C.ar    1  LIG1        0.0400
     21  C          3.1970  -13.9670   18.1030 C.ar    1  LIG1        0.0200
     22  C          3.9110  -14.8050   17.2460 C.ar    1  LIG1        0.0330
     23  C          3.3200  -15.9710   16.7600 C.ar    1  LIG1        0.0750
     24  C          2.0160  -16.3000   17.1310 C.ar    1  LIG1        0.0330
     25  C          1.3030  -15.4620   17.9880 C.ar    1  LIG1        0.0200
     26  N          4.0360  -16.8120   15.9000 N.pl3   1  LIG1       -0.0660
     27  C          3.9350  -16.6290   14.6060 C.cat   1  LIG1        0.6920
     28  N          3.1850  -15.6740   13.9540 N.pl3   1  LIG1       -0.2330
     29  N          4.6220  -17.4330   13.7270 N.pl3   1  LIG1       -0.2330
     30  H          2.6450  -15.0350   14.4710 H       1  LIG1        0.1740
     31  H          3.1880  -15.6340   12.9700 H       1  LIG1        0.1740
     32  H          5.1970  -18.1550   14.0680 H       1  LIG1        0.1740
     33  H          4.5390  -17.2850   12.7570 H       1  LIG1        0.1740
@<TRIPOS>BOND
     1    33    29    1
     2    31    28    1
     3    29    32    1
     4    29    27    1
     5    28    30    1
     6    28    27    1
     7    27    26    2
     8    26    23    1
     9    23    24   ar
    10    23    22   ar
    11    24    25   ar
    12    22    21   ar
    13    25    20   ar
    14    21    20   ar
    15    20    18    1
    16    14    13    2
    17     1    18    1
    18     1     2    1
    19    17    15    1
    20    18    19    2
    21     2     7   ar
    22     2     3   ar
    23     7     6   ar
    24    13    15   am
    25    13    12    1
    26    15    16    1
    27     3     4   ar
    28     6     5   ar
    29    12    11    1
    30    11     9    1
    31     4     5   ar
    32     5     8    1
    33     9     8    1
    34     9    10    2
