@<TRIPOS>MOLECULE
./../dock_file/temp/27b69fd683714517436c20faf3ca207e/Camostat_Ligand_CID_2536:hmTMPRSS7:20230418090535/Camostat_Ligand_CID_2536:hmTMPRSS7_out_2.pdbqt
 33 34 0 0 0
SMALL
GASTEIGER

@<TRIPOS>ATOM
      1  O        -10.4780   29.7170   21.4490 O.3     1  LIG1       -0.2750
      2  C         -9.1430   29.4850   21.5760 C.ar    1  LIG1        0.0790
      3  C         -8.3670   29.2360   20.4440 C.ar    1  LIG1        0.0380
      4  C         -6.9990   28.9990   20.5740 C.ar    1  LIG1        0.0100
      5  C         -6.4060   29.0130   21.8370 C.ar    1  LIG1       -0.0490
      6  C         -7.1820   29.2620   22.9690 C.ar    1  LIG1        0.0100
      7  C         -8.5510   29.4990   22.8380 C.ar    1  LIG1        0.0380
      8  C         -4.9280   28.7570   21.9790 C.3     1  LIG1        0.1490
      9  C         -4.5440   27.3300   21.6630 C.2     1  LIG1        0.2630
     10  O         -4.0140   26.9520   20.6280 O.2     1  LIG1       -0.2650
     11  O         -4.8820   26.5190   22.7200 O.3     1  LIG1       -0.3120
     12  C         -5.1890   25.1770   22.4040 C.3     1  LIG1        0.2810
     13  C         -6.4160   24.7400   23.1770 C.2     1  LIG1        0.2430
     14  O         -7.0400   25.5840   23.8260 O.2     1  LIG1       -0.2710
     15  N         -6.7780   23.3950   23.1010 N.am    1  LIG1       -0.3590
     16  C         -6.0740   22.3710   22.3320 C.3     1  LIG1        0.1520
     17  C         -7.9560   22.9280   23.8210 C.3     1  LIG1        0.1520
     18  C        -10.7990   31.0010   21.0010 C.2     1  LIG1        0.2980
     19  O        -10.5610   32.0420   21.5940 O.2     1  LIG1       -0.2590
     20  C        -11.4980   30.9530   19.6920 C.ar    1  LIG1        0.0400
     21  C        -10.7750   30.7120   18.5240 C.ar    1  LIG1        0.0200
     22  C        -11.4310   30.6660   17.2940 C.ar    1  LIG1        0.0330
     23  C        -12.8100   30.8620   17.2320 C.ar    1  LIG1        0.0750
     24  C        -13.5350   31.1020   18.4000 C.ar    1  LIG1        0.0330
     25  C        -12.8780   31.1480   19.6300 C.ar    1  LIG1        0.0200
     26  N        -13.4690   30.8160   15.9980 N.pl3   1  LIG1       -0.0660
     27  C        -13.4610   31.8830   15.2360 C.cat   1  LIG1        0.6920
     28  N        -12.8630   33.0950   15.5030 N.pl3   1  LIG1       -0.2330
     29  N        -14.0960   31.8790   14.0160 N.pl3   1  LIG1       -0.2330
     30  H        -12.3750   33.2280   16.3470 H       1  LIG1        0.1740
     31  H        -12.9260   33.8290   14.8490 H       1  LIG1        0.1740
     32  H        -14.5620   31.0700   13.7060 H       1  LIG1        0.1740
     33  H        -14.0820   32.6860   13.4520 H       1  LIG1        0.1740
@<TRIPOS>BOND
     1    33    29    1
     2    32    29    1
     3    29    27    1
     4    31    28    1
     5    27    28    1
     6    27    26    2
     7    28    30    1
     8    26    23    1
     9    23    22   ar
    10    23    24   ar
    11    22    21   ar
    12    24    25   ar
    13    21    20   ar
    14    25    20   ar
    15    20    18    1
    16     3     4   ar
    17     3     2   ar
    18     4     5   ar
    19    10     9    2
    20    18     1    1
    21    18    19    2
    22     1     2    1
    23     2     7   ar
    24     9     8    1
    25     9    11    1
    26     5     8    1
    27     5     6   ar
    28    16    15    1
    29    12    11    1
    30    12    13    1
    31     7     6   ar
    32    15    13   am
    33    15    17    1
    34    13    14    2
@<TRIPOS>MOLECULE
./../dock_file/temp/27b69fd683714517436c20faf3ca207e/Camostat_Ligand_CID_2536:hmTMPRSS7:20230418090535/Camostat_Ligand_CID_2536:hmTMPRSS7_out_2.pdbqt
 33 34 0 0 0
SMALL
GASTEIGER

@<TRIPOS>ATOM
      1  O         -3.0570   32.7190   19.8840 O.3     1  LIG1       -0.2750
      2  C         -3.7210   31.5830   20.2300 C.ar    1  LIG1        0.0790
      3  C         -3.7480   31.1680   21.5620 C.ar    1  LIG1        0.0380
      4  C         -4.4280   30.0030   21.9160 C.ar    1  LIG1        0.0100
      5  C         -5.0820   29.2530   20.9390 C.ar    1  LIG1       -0.0490
      6  C         -5.0550   29.6680   19.6070 C.ar    1  LIG1        0.0100
      7  C         -4.3740   30.8330   19.2530 C.ar    1  LIG1        0.0380
      8  C         -5.8170   27.9940   21.3210 C.3     1  LIG1        0.1490
      9  C         -4.9570   26.7560   21.2200 C.2     1  LIG1        0.2630
     10  O         -3.7920   26.7310   20.8480 O.2     1  LIG1       -0.2650
     11  O         -5.6840   25.6580   21.6140 O.3     1  LIG1       -0.3120
     12  C         -5.4140   25.1620   22.9080 C.3     1  LIG1        0.2810
     13  C         -6.6760   24.5700   23.5000 C.2     1  LIG1        0.2430
     14  O         -7.3960   25.2870   24.2010 O.2     1  LIG1       -0.2710
     15  N         -6.9590   23.2350   23.2070 N.am    1  LIG1       -0.3590
     16  C         -6.1410   22.3600   22.3710 C.3     1  LIG1        0.1520
     17  C         -8.1670   22.6250   23.7470 C.3     1  LIG1        0.1520
     18  C         -1.7660   32.5050   19.3950 C.2     1  LIG1        0.2980
     19  O         -0.8790   31.8920   19.9690 O.2     1  LIG1       -0.2590
     20  C         -1.5860   33.1400   18.0640 C.ar    1  LIG1        0.0400
     21  C         -0.3160   33.5360   17.6470 C.ar    1  LIG1        0.0200
     22  C         -0.1470   34.1320   16.3970 C.ar    1  LIG1        0.0330
     23  C         -1.2480   34.3330   15.5650 C.ar    1  LIG1        0.0750
     24  C         -2.5190   33.9360   15.9820 C.ar    1  LIG1        0.0330
     25  C         -2.6880   33.3410   17.2320 C.ar    1  LIG1        0.0200
     26  N         -1.0790   34.9300   14.3120 N.pl3   1  LIG1       -0.0660
     27  C         -1.2230   36.2300   14.2040 C.cat   1  LIG1        0.6920
     28  N         -1.5340   37.1210   15.2080 N.pl3   1  LIG1       -0.2330
     29  N         -1.0650   36.8560   12.9900 N.pl3   1  LIG1       -0.2330
     30  H         -1.6740   36.7980   16.1270 H       1  LIG1        0.1740
     31  H         -1.6180   38.0810   15.0050 H       1  LIG1        0.1740
     32  H         -0.8400   36.3290   12.1900 H       1  LIG1        0.1740
     33  H         -1.1750   37.8320   12.9230 H       1  LIG1        0.1740
@<TRIPOS>BOND
     1    32    29    1
     2    33    29    1
     3    29    27    1
     4    27    26    2
     5    27    28    1
     6    26    23    1
     7    31    28    1
     8    28    30    1
     9    23    24   ar
    10    23    22   ar
    11    24    25   ar
    12    22    21   ar
    13    25    20   ar
    14    21    20   ar
    15    20    18    1
    16     7     6   ar
    17     7     2   ar
    18    18     1    1
    19    18    19    2
    20     6     5   ar
    21     1     2    1
    22     2     3   ar
    23    10     9    2
    24     5     8    1
    25     5     4   ar
    26     9     8    1
    27     9    11    1
    28     3     4   ar
    29    11    12    1
    30    16    15    1
    31    12    13    1
    32    15    13   am
    33    15    17    1
    34    13    14    2
@<TRIPOS>MOLECULE
./../dock_file/temp/27b69fd683714517436c20faf3ca207e/Camostat_Ligand_CID_2536:hmTMPRSS7:20230418090535/Camostat_Ligand_CID_2536:hmTMPRSS7_out_2.pdbqt
 33 34 0 0 0
SMALL
GASTEIGER

@<TRIPOS>ATOM
      1  O         -4.1370   28.1160   20.4760 O.3     1  LIG1       -0.2750
      2  C         -4.7490   27.5400   21.5470 C.ar    1  LIG1        0.0790
      3  C         -5.2190   28.3360   22.5930 C.ar    1  LIG1        0.0380
      4  C         -5.8450   27.7460   23.6900 C.ar    1  LIG1        0.0100
      5  C         -6.0030   26.3610   23.7420 C.ar    1  LIG1       -0.0490
      6  C         -5.5330   25.5660   22.6960 C.ar    1  LIG1        0.0100
      7  C         -4.9060   26.1560   21.5990 C.ar    1  LIG1        0.0380
      8  C         -6.6800   25.7230   24.9280 C.3     1  LIG1        0.1490
      9  C         -7.0490   26.7200   26.0020 C.2     1  LIG1        0.2630
     10  O         -8.0240   27.4570   25.9800 O.2     1  LIG1       -0.2650
     11  O         -6.1180   26.6710   27.0120 O.3     1  LIG1       -0.3120
     12  C         -6.3400   27.5340   28.1080 C.3     1  LIG1        0.2810
     13  C         -5.0130   28.0380   28.6370 C.2     1  LIG1        0.2430
     14  O         -4.4890   27.4460   29.5840 O.2     1  LIG1       -0.2710
     15  N         -4.4510   29.1490   28.0080 N.am    1  LIG1       -0.3590
     16  C         -5.0330   29.8660   26.8760 C.3     1  LIG1        0.1520
     17  C         -3.1710   29.6650   28.4760 C.3     1  LIG1        0.1520
     18  C         -4.8940   29.1060   19.8450 C.2     1  LIG1        0.2980
     19  O         -6.0710   29.0120   19.5300 O.2     1  LIG1       -0.2590
     20  C         -4.0770   30.3170   19.5810 C.ar    1  LIG1        0.0400
     21  C         -3.2410   30.8250   20.5750 C.ar    1  LIG1        0.0200
     22  C         -2.4730   31.9630   20.3260 C.ar    1  LIG1        0.0330
     23  C         -2.5410   32.5930   19.0840 C.ar    1  LIG1        0.0750
     24  C         -3.3770   32.0850   18.0890 C.ar    1  LIG1        0.0330
     25  C         -4.1450   30.9480   18.3380 C.ar    1  LIG1        0.0200
     26  N         -1.7710   33.7340   18.8340 N.pl3   1  LIG1       -0.0660
     27  C         -0.5590   33.5880   18.3540 C.cat   1  LIG1        0.6920
     28  N          0.0820   32.4060   18.0500 N.pl3   1  LIG1       -0.2330
     29  N          0.2300   34.6830   18.0950 N.pl3   1  LIG1       -0.2330
     30  H         -0.3770   31.5470   18.1910 H       1  LIG1        0.1740
     31  H          0.9990   32.4220   17.6930 H       1  LIG1        0.1740
     32  H         -0.1120   35.5890   18.2690 H       1  LIG1        0.1740
     33  H          1.1380   34.5610   17.7340 H       1  LIG1        0.1740
@<TRIPOS>BOND
     1    31    28    1
     2    33    29    1
     3    28    30    1
     4    28    27    1
     5    24    25   ar
     6    24    23   ar
     7    29    32    1
     8    29    27    1
     9    25    20   ar
    10    27    26    2
    11    26    23    1
    12    23    22   ar
    13    19    18    2
    14    20    18    1
    15    20    21   ar
    16    18     1    1
    17    22    21   ar
    18     1     2    1
    19     2     7   ar
    20     2     3   ar
    21     7     6   ar
    22     3     4   ar
    23     6     5   ar
    24     4     5   ar
    25     5     8    1
    26     8     9    1
    27    10     9    2
    28     9    11    1
    29    16    15    1
    30    11    12    1
    31    15    17    1
    32    15    13   am
    33    12    13    1
    34    13    14    2
@<TRIPOS>MOLECULE
./../dock_file/temp/27b69fd683714517436c20faf3ca207e/Camostat_Ligand_CID_2536:hmTMPRSS7:20230418090535/Camostat_Ligand_CID_2536:hmTMPRSS7_out_2.pdbqt
 33 34 0 0 0
SMALL
GASTEIGER

@<TRIPOS>ATOM
      1  O         -5.1150   27.7990   19.6880 O.3     1  LIG1       -0.2750
      2  C         -5.2490   29.1530   19.6680 C.ar    1  LIG1        0.0790
      3  C         -6.3550   29.7550   20.2680 C.ar    1  LIG1        0.0380
      4  C         -6.4910   31.1420   20.2470 C.ar    1  LIG1        0.0100
      5  C         -5.5200   31.9300   19.6280 C.ar    1  LIG1       -0.0490
      6  C         -4.4140   31.3280   19.0280 C.ar    1  LIG1        0.0100
      7  C         -4.2770   29.9400   19.0490 C.ar    1  LIG1        0.0380
      8  C         -5.6670   33.4290   19.6050 C.3     1  LIG1        0.1490
      9  C         -5.1670   34.0510   18.3220 C.2     1  LIG1        0.2630
     10  O         -5.8100   34.1550   17.2870 O.2     1  LIG1       -0.2650
     11  O         -3.8740   34.4840   18.4960 O.3     1  LIG1       -0.3120
     12  C         -2.9700   34.1840   17.4540 C.3     1  LIG1        0.2810
     13  C         -1.5900   33.9430   18.0300 C.2     1  LIG1        0.2430
     14  O         -1.4760   33.7760   19.2480 O.2     1  LIG1       -0.2710
     15  N         -0.5170   33.9150   17.1390 N.am    1  LIG1       -0.3590
     16  C         -0.6130   34.0940   15.6920 C.3     1  LIG1        0.1520
     17  C          0.8290   33.6790   17.6450 C.3     1  LIG1        0.1520
     18  C         -4.3390   27.3130   20.7430 C.2     1  LIG1        0.2980
     19  O         -3.1540   27.5520   20.9250 O.2     1  LIG1       -0.2590
     20  C         -5.1370   26.4360   21.6360 C.ar    1  LIG1        0.0400
     21  C         -6.2170   26.9600   22.3450 C.ar    1  LIG1        0.0200
     22  C         -6.9680   26.1350   23.1830 C.ar    1  LIG1        0.0330
     23  C         -6.6380   24.7860   23.3130 C.ar    1  LIG1        0.0750
     24  C         -5.5570   24.2610   22.6030 C.ar    1  LIG1        0.0330
     25  C         -4.8070   25.0860   21.7650 C.ar    1  LIG1        0.0200
     26  N         -7.3900   23.9590   24.1540 N.pl3   1  LIG1       -0.0660
     27  C         -7.8150   22.8060   23.6940 C.cat   1  LIG1        0.6920
     28  N         -7.6080   22.2820   22.4370 N.pl3   1  LIG1       -0.2330
     29  N         -8.5570   21.9640   24.4880 N.pl3   1  LIG1       -0.2330
     30  H         -7.0900   22.7880   21.7710 H       1  LIG1        0.1740
     31  H         -7.9790   21.3990   22.2050 H       1  LIG1        0.1740
     32  H         -8.7750   22.2240   25.4120 H       1  LIG1        0.1740
     33  H         -8.8700   21.1010   24.1320 H       1  LIG1        0.1740
@<TRIPOS>BOND
     1    16    15    1
     2    15    17    1
     3    15    13   am
     4    10     9    2
     5    12    13    1
     6    12    11    1
     7    13    14    2
     8     9    11    1
     9     9     8    1
    10     6     7   ar
    11     6     5   ar
    12     7     2   ar
    13     8     5    1
    14     5     4   ar
    15     2     1    1
    16     2     3   ar
    17     1    18    1
    18     4     3   ar
    19    18    19    2
    20    18    20    1
    21    20    25   ar
    22    20    21   ar
    23    25    24   ar
    24    30    28    1
    25    31    28    1
    26    21    22   ar
    27    28    27    1
    28    24    23   ar
    29    22    23   ar
    30    23    26    1
    31    27    26    2
    32    27    29    1
    33    33    29    1
    34    29    32    1
@<TRIPOS>MOLECULE
./../dock_file/temp/27b69fd683714517436c20faf3ca207e/Camostat_Ligand_CID_2536:hmTMPRSS7:20230418090535/Camostat_Ligand_CID_2536:hmTMPRSS7_out_2.pdbqt
 33 34 0 0 0
SMALL
GASTEIGER

@<TRIPOS>ATOM
      1  O        -10.4160   29.6400   21.3570 O.3     1  LIG1       -0.2750
      2  C         -9.0740   29.4940   21.5250 C.ar    1  LIG1        0.0790
      3  C         -8.2360   29.4070   20.4130 C.ar    1  LIG1        0.0380
      4  C         -6.8610   29.2570   20.5850 C.ar    1  LIG1        0.0100
      5  C         -6.3210   29.1940   21.8700 C.ar    1  LIG1       -0.0490
      6  C         -7.1590   29.2800   22.9830 C.ar    1  LIG1        0.0100
      7  C         -8.5350   29.4310   22.8100 C.ar    1  LIG1        0.0380
      8  C         -4.8350   29.0320   22.0570 C.3     1  LIG1        0.1490
      9  C         -4.1540   28.4160   20.8570 C.2     1  LIG1        0.2630
     10  O         -4.4570   27.3500   20.3390 O.2     1  LIG1       -0.2650
     11  O         -3.1390   29.2410   20.4320 O.3     1  LIG1       -0.3120
     12  C         -3.4960   30.5780   20.1540 C.3     1  LIG1        0.2810
     13  C         -2.2680   31.3550   19.7280 C.2     1  LIG1        0.2430
     14  O         -1.3190   31.4420   20.5130 O.2     1  LIG1       -0.2710
     15  N         -2.2780   31.9260   18.4550 N.am    1  LIG1       -0.3590
     16  C         -3.3730   31.8320   17.4930 C.3     1  LIG1        0.1520
     17  C         -1.1150   32.6760   17.9980 C.3     1  LIG1        0.1520
     18  C        -10.8100   30.9230   20.9670 C.2     1  LIG1        0.2980
     19  O        -10.6270   31.9490   21.6040 O.2     1  LIG1       -0.2590
     20  C        -11.5110   30.8930   19.6590 C.ar    1  LIG1        0.0400
     21  C        -10.7840   30.7250   18.4810 C.ar    1  LIG1        0.0200
     22  C        -11.4430   30.6970   17.2520 C.ar    1  LIG1        0.0330
     23  C        -12.8290   30.8360   17.2010 C.ar    1  LIG1        0.0750
     24  C        -13.5580   31.0040   18.3780 C.ar    1  LIG1        0.0330
     25  C        -12.8990   31.0330   19.6080 C.ar    1  LIG1        0.0200
     26  N        -13.4900   30.8080   15.9680 N.pl3   1  LIG1       -0.0660
     27  C        -13.4760   31.8820   15.2160 C.cat   1  LIG1        0.6920
     28  N        -12.8690   33.0880   15.4940 N.pl3   1  LIG1       -0.2330
     29  N        -14.1130   31.8950   13.9980 N.pl3   1  LIG1       -0.2330
     30  H        -12.3790   33.2090   16.3390 H       1  LIG1        0.1740
     31  H        -12.9280   33.8290   14.8480 H       1  LIG1        0.1740
     32  H        -14.5860   31.0920   13.6810 H       1  LIG1        0.1740
     33  H        -14.0950   32.7080   13.4420 H       1  LIG1        0.1740
@<TRIPOS>BOND
     1    33    29    1
     2    32    29    1
     3    29    27    1
     4    31    28    1
     5    27    28    1
     6    27    26    2
     7    28    30    1
     8    26    23    1
     9    23    22   ar
    10    23    24   ar
    11    22    21   ar
    12    16    15    1
    13    17    15    1
    14    24    25   ar
    15    15    13   am
    16    21    20   ar
    17    25    20   ar
    18    20    18    1
    19    13    12    1
    20    13    14    2
    21    12    11    1
    22    10     9    2
    23     3     4   ar
    24     3     2   ar
    25    11     9    1
    26     4     5   ar
    27     9     8    1
    28    18     1    1
    29    18    19    2
    30     1     2    1
    31     2     7   ar
    32     5     8    1
    33     5     6   ar
    34     7     6   ar
@<TRIPOS>MOLECULE
./../dock_file/temp/27b69fd683714517436c20faf3ca207e/Camostat_Ligand_CID_2536:hmTMPRSS7:20230418090535/Camostat_Ligand_CID_2536:hmTMPRSS7_out_2.pdbqt
 33 34 0 0 0
SMALL
GASTEIGER

@<TRIPOS>ATOM
      1  O         -4.2950   28.3630   20.5450 O.3     1  LIG1       -0.2750
      2  C         -4.8180   27.7310   21.6300 C.ar    1  LIG1        0.0790
      3  C         -5.1310   28.4590   22.7790 C.ar    1  LIG1        0.0380
      4  C         -5.6670   27.8110   23.8910 C.ar    1  LIG1        0.0100
      5  C         -5.8930   26.4350   23.8550 C.ar    1  LIG1       -0.0490
      6  C         -5.5810   25.7070   22.7060 C.ar    1  LIG1        0.0100
      7  C         -5.0440   26.3550   21.5940 C.ar    1  LIG1        0.0380
      8  C         -6.4730   25.7340   25.0560 C.3     1  LIG1        0.1490
      9  C         -7.1900   26.6740   25.9970 C.2     1  LIG1        0.2630
     10  O         -8.1290   27.3970   25.6960 O.2     1  LIG1       -0.2650
     11  O         -6.6250   26.5920   27.2470 O.3     1  LIG1       -0.3120
     12  C         -6.7070   27.7520   28.0470 C.3     1  LIG1        0.2810
     13  C         -5.3320   28.1040   28.5770 C.2     1  LIG1        0.2430
     14  O         -4.8910   27.4780   29.5450 O.2     1  LIG1       -0.2710
     15  N         -4.6330   29.1210   27.9250 N.am    1  LIG1       -0.3590
     16  C         -5.1150   29.8730   26.7690 C.3     1  LIG1        0.1520
     17  C         -3.3030   29.4890   28.3930 C.3     1  LIG1        0.1520
     18  C         -5.2000   28.5510   19.4970 C.2     1  LIG1        0.2980
     19  O         -5.1640   27.9860   18.4150 O.2     1  LIG1       -0.2590
     20  C         -6.2310   29.5580   19.8550 C.ar    1  LIG1        0.0400
     21  C         -5.8940   30.9100   19.9110 C.ar    1  LIG1        0.0200
     22  C         -6.8630   31.8570   20.2460 C.ar    1  LIG1        0.0330
     23  C         -8.1680   31.4510   20.5260 C.ar    1  LIG1        0.0750
     24  C         -8.5040   30.0980   20.4700 C.ar    1  LIG1        0.0330
     25  C         -7.5360   29.1520   20.1350 C.ar    1  LIG1        0.0200
     26  N         -9.1390   32.4000   20.8620 N.pl3   1  LIG1       -0.0660
     27  C         -9.8820   32.9100   19.9100 C.cat   1  LIG1        0.6920
     28  N         -9.8290   32.6220   18.5640 N.pl3   1  LIG1       -0.2330
     29  N        -10.8480   33.8460   20.1990 N.pl3   1  LIG1       -0.2330
     30  H         -9.1770   31.9670   18.2270 H       1  LIG1        0.1740
     31  H        -10.4420   33.0730   17.9390 H       1  LIG1        0.1740
     32  H        -10.9880   34.1380   21.1280 H       1  LIG1        0.1740
     33  H        -11.4000   34.2220   19.4750 H       1  LIG1        0.1740
@<TRIPOS>BOND
     1    31    28    1
     2    30    28    1
     3    19    18    2
     4    28    27    1
     5    33    29    1
     6    18    20    1
     7    18     1    1
     8    20    21   ar
     9    20    25   ar
    10    27    29    1
    11    27    26    2
    12    21    22   ar
    13    25    24   ar
    14    29    32    1
    15    22    23   ar
    16    24    23   ar
    17    23    26    1
    18     1     2    1
    19     7     2   ar
    20     7     6   ar
    21     2     3   ar
    22     6     5   ar
    23     3     4   ar
    24     5     4   ar
    25     5     8    1
    26     8     9    1
    27    10     9    2
    28     9    11    1
    29    16    15    1
    30    11    12    1
    31    15    17    1
    32    15    13   am
    33    12    13    1
    34    13    14    2
@<TRIPOS>MOLECULE
./../dock_file/temp/27b69fd683714517436c20faf3ca207e/Camostat_Ligand_CID_2536:hmTMPRSS7:20230418090535/Camostat_Ligand_CID_2536:hmTMPRSS7_out_2.pdbqt
 33 34 0 0 0
SMALL
GASTEIGER

@<TRIPOS>ATOM
      1  O         -7.8940   26.7920   25.3560 O.3     1  LIG1       -0.2750
      2  C         -7.0960   26.8930   24.2580 C.ar    1  LIG1        0.0790
      3  C         -6.0570   25.9830   24.0640 C.ar    1  LIG1        0.0380
      4  C         -5.2400   26.0860   22.9390 C.ar    1  LIG1        0.0100
      5  C         -5.4620   27.1000   22.0060 C.ar    1  LIG1       -0.0490
      6  C         -6.5010   28.0110   22.2010 C.ar    1  LIG1        0.0100
      7  C         -7.3180   27.9070   23.3270 C.ar    1  LIG1        0.0380
      8  C         -4.5800   27.2130   20.7900 C.3     1  LIG1        0.1490
      9  C         -4.4880   28.6240   20.2570 C.2     1  LIG1        0.2630
     10  O         -5.1470   29.0750   19.3310 O.2     1  LIG1       -0.2650
     11  O         -3.5490   29.3260   20.9760 O.3     1  LIG1       -0.3120
     12  C         -3.8450   30.6830   21.2300 C.3     1  LIG1        0.2810
     13  C         -3.6650   30.9750   22.7050 C.2     1  LIG1        0.2430
     14  O         -4.3980   30.4040   23.5170 O.2     1  LIG1       -0.2710
     15  N         -2.6630   31.8780   23.0630 N.am    1  LIG1       -0.3590
     16  C         -1.7670   32.5620   22.1340 C.3     1  LIG1        0.1520
     17  C         -2.4460   32.1850   24.4710 C.3     1  LIG1        0.1520
     18  C         -8.0440   27.9840   26.0690 C.2     1  LIG1        0.2980
     19  O         -9.0360   28.6970   26.0640 O.2     1  LIG1       -0.2590
     20  C         -6.8180   28.3030   26.8430 C.ar    1  LIG1        0.0400
     21  C         -6.4780   27.5380   27.9580 C.ar    1  LIG1        0.0200
     22  C         -5.3260   27.8370   28.6850 C.ar    1  LIG1        0.0330
     23  C         -4.5140   28.9030   28.2980 C.ar    1  LIG1        0.0750
     24  C         -4.8540   29.6700   27.1830 C.ar    1  LIG1        0.0330
     25  C         -6.0060   29.3700   26.4560 C.ar    1  LIG1        0.0200
     26  N         -3.3590   29.2040   29.0270 N.pl3   1  LIG1       -0.0660
     27  C         -3.3590   30.2550   29.8110 C.cat   1  LIG1        0.6920
     28  N         -4.3940   31.1420   30.0170 N.pl3   1  LIG1       -0.2330
     29  N         -2.2440   30.5850   30.5440 N.pl3   1  LIG1       -0.2330
     30  H         -5.2500   31.0170   29.5490 H       1  LIG1        0.1740
     31  H         -4.2760   31.9010   30.6340 H       1  LIG1        0.1740
     32  H         -1.4340   30.0290   30.4860 H       1  LIG1        0.1740
     33  H         -2.2570   31.3770   31.1290 H       1  LIG1        0.1740
@<TRIPOS>BOND
     1    10     9    2
     2     9     8    1
     3     9    11    1
     4     8     5    1
     5    11    12    1
     6    12    13    1
     7     5     6   ar
     8     5     4   ar
     9    16    15    1
    10     6     7   ar
    11    13    15   am
    12    13    14    2
    13     4     3   ar
    14    15    17    1
    15     7     2   ar
    16     3     2   ar
    17     2     1    1
    18     1    18    1
    19    19    18    2
    20    18    20    1
    21    25    20   ar
    22    25    24   ar
    23    20    21   ar
    24    24    23   ar
    25    21    22   ar
    26    23    22   ar
    27    23    26    1
    28    26    27    2
    29    30    28    1
    30    27    28    1
    31    27    29    1
    32    28    31    1
    33    32    29    1
    34    29    33    1
@<TRIPOS>MOLECULE
./../dock_file/temp/27b69fd683714517436c20faf3ca207e/Camostat_Ligand_CID_2536:hmTMPRSS7:20230418090535/Camostat_Ligand_CID_2536:hmTMPRSS7_out_2.pdbqt
 33 34 0 0 0
SMALL
GASTEIGER

@<TRIPOS>ATOM
      1  O         -5.4810   31.1330   21.3100 O.3     1  LIG1       -0.2750
      2  C         -4.9230   31.6280   20.1720 C.ar    1  LIG1        0.0790
      3  C         -4.5290   30.7610   19.1530 C.ar    1  LIG1        0.0380
      4  C         -3.9570   31.2690   17.9880 C.ar    1  LIG1        0.0100
      5  C         -3.7800   32.6450   17.8390 C.ar    1  LIG1       -0.0490
      6  C         -4.1750   33.5120   18.8580 C.ar    1  LIG1        0.0100
      7  C         -4.7460   33.0040   20.0250 C.ar    1  LIG1        0.0380
      8  C         -3.1630   33.1940   16.5790 C.3     1  LIG1        0.1490
      9  C         -1.6550   33.2730   16.6480 C.2     1  LIG1        0.2630
     10  O         -0.9660   32.8690   17.5740 O.2     1  LIG1       -0.2650
     11  O         -1.1750   33.8710   15.5070 O.3     1  LIG1       -0.3120
     12  C         -0.9560   35.2640   15.5770 C.3     1  LIG1        0.2810
     13  C         -1.5230   35.9300   14.3400 C.2     1  LIG1        0.2430
     14  O         -0.9290   35.7940   13.2670 O.2     1  LIG1       -0.2710
     15  N         -2.7020   36.6610   14.4880 N.am    1  LIG1       -0.3590
     16  C         -3.4420   36.8330   15.7360 C.3     1  LIG1        0.1520
     17  C         -3.2910   37.3140   13.3250 C.3     1  LIG1        0.1520
     18  C         -4.6090   30.3750   22.0950 C.2     1  LIG1        0.2980
     19  O         -3.5470   30.7630   22.5590 O.2     1  LIG1       -0.2590
     20  C         -5.1280   28.9980   22.2940 C.ar    1  LIG1        0.0400
     21  C         -5.4910   28.5670   23.5700 C.ar    1  LIG1        0.0200
     22  C         -5.9790   27.2730   23.7560 C.ar    1  LIG1        0.0330
     23  C         -6.1030   26.4100   22.6680 C.ar    1  LIG1        0.0750
     24  C         -5.7390   26.8410   21.3910 C.ar    1  LIG1        0.0330
     25  C         -5.2520   28.1340   21.2050 C.ar    1  LIG1        0.0200
     26  N         -6.5920   25.1130   22.8550 N.pl3   1  LIG1       -0.0660
     27  C         -5.8000   24.0960   22.6140 C.cat   1  LIG1        0.6920
     28  N         -4.4920   24.1410   22.1820 N.pl3   1  LIG1       -0.2330
     29  N         -6.2420   22.8060   22.7860 N.pl3   1  LIG1       -0.2330
     30  H         -4.0570   25.0080   22.0200 H       1  LIG1        0.1740
     31  H         -3.9940   23.3040   22.0340 H       1  LIG1        0.1740
     32  H         -7.1620   22.6370   23.0930 H       1  LIG1        0.1740
     33  H         -5.6380   22.0500   22.6020 H       1  LIG1        0.1740
@<TRIPOS>BOND
     1    14    13    2
     2    17    15    1
     3    13    15   am
     4    13    12    1
     5    15    16    1
     6    11    12    1
     7    11     9    1
     8     8     9    1
     9     8     5    1
    10     9    10    2
    11     5     4   ar
    12     5     6   ar
    13     4     3   ar
    14     6     7   ar
    15     3     2   ar
    16     7     2   ar
    17     2     1    1
    18    25    24   ar
    19    25    20   ar
    20     1    18    1
    21    24    23   ar
    22    30    28    1
    23    31    28    1
    24    18    20    1
    25    18    19    2
    26    28    27    1
    27    20    21   ar
    28    33    29    1
    29    27    29    1
    30    27    26    2
    31    23    26    1
    32    23    22   ar
    33    29    32    1
    34    21    22   ar
@<TRIPOS>MOLECULE
./../dock_file/temp/27b69fd683714517436c20faf3ca207e/Camostat_Ligand_CID_2536:hmTMPRSS7:20230418090535/Camostat_Ligand_CID_2536:hmTMPRSS7_out_2.pdbqt
 33 34 0 0 0
SMALL
GASTEIGER

@<TRIPOS>ATOM
      1  O         -9.5770   31.2840   20.7340 O.3     1  LIG1       -0.2750
      2  C         -8.5670   30.5440   21.2670 C.ar    1  LIG1        0.0790
      3  C         -8.0360   29.4690   20.5530 C.ar    1  LIG1        0.0380
      4  C         -7.0020   28.7120   21.1000 C.ar    1  LIG1        0.0100
      5  C         -6.4950   29.0290   22.3600 C.ar    1  LIG1       -0.0490
      6  C         -7.0260   30.1040   23.0740 C.ar    1  LIG1        0.0100
      7  C         -8.0610   30.8620   22.5270 C.ar    1  LIG1        0.0380
      8  C         -5.3770   28.2100   22.9520 C.3     1  LIG1        0.1490
      9  C         -5.7510   26.7600   23.1530 C.2     1  LIG1        0.2630
     10  O         -5.0660   25.8000   22.8290 O.2     1  LIG1       -0.2650
     11  O         -6.9830   26.6840   23.7590 O.3     1  LIG1       -0.3120
     12  C         -6.9800   26.4250   25.1480 C.3     1  LIG1        0.2810
     13  C         -7.8320   27.4560   25.8590 C.2     1  LIG1        0.2430
     14  O         -8.8020   27.9360   25.2660 O.2     1  LIG1       -0.2710
     15  N         -7.4700   27.7990   27.1620 N.am    1  LIG1       -0.3590
     16  C         -6.3390   27.2430   27.9020 C.3     1  LIG1        0.1520
     17  C         -8.2640   28.7800   27.8910 C.3     1  LIG1        0.1520
     18  C        -10.8330   30.6770   20.8030 C.2     1  LIG1        0.2980
     19  O        -11.3130   30.1440   21.7920 O.2     1  LIG1       -0.2590
     20  C        -11.5310   30.7390   19.4940 C.ar    1  LIG1        0.0400
     21  C        -10.8190   30.5290   18.3130 C.ar    1  LIG1        0.0200
     22  C        -11.4760   30.5880   17.0840 C.ar    1  LIG1        0.0330
     23  C        -12.8430   30.8570   17.0350 C.ar    1  LIG1        0.0750
     24  C        -13.5550   31.0680   18.2150 C.ar    1  LIG1        0.0330
     25  C        -12.8990   31.0090   19.4450 C.ar    1  LIG1        0.0200
     26  N        -13.5010   30.9160   15.8010 N.pl3   1  LIG1       -0.0660
     27  C        -13.4790   32.0390   15.1240 C.cat   1  LIG1        0.6920
     28  N        -12.8670   33.2200   15.4860 N.pl3   1  LIG1       -0.2330
     29  N        -14.1130   32.1390   13.9080 N.pl3   1  LIG1       -0.2330
     30  H        -12.3780   33.2800   16.3370 H       1  LIG1        0.1740
     31  H        -12.9200   34.0040   14.8910 H       1  LIG1        0.1740
     32  H        -14.5890   31.3620   13.5370 H       1  LIG1        0.1740
     33  H        -14.0900   32.9870   13.4090 H       1  LIG1        0.1740
@<TRIPOS>BOND
     1    33    29    1
     2    32    29    1
     3    29    27    1
     4    31    28    1
     5    27    28    1
     6    27    26    2
     7    28    30    1
     8    26    23    1
     9    23    22   ar
    10    23    24   ar
    11    22    21   ar
    12    24    25   ar
    13    21    20   ar
    14    25    20   ar
    15    20    18    1
    16     3     4   ar
    17     3     2   ar
    18     1    18    1
    19     1     2    1
    20    18    19    2
    21     4     5   ar
    22     2     7   ar
    23     5     8    1
    24     5     6   ar
    25     7     6   ar
    26    10     9    2
    27     8     9    1
    28     9    11    1
    29    11    12    1
    30    12    13    1
    31    14    13    2
    32    13    15   am
    33    15    17    1
    34    15    16    1
