@<TRIPOS>MOLECULE
./../dock_file/temp/27b69fd683714517436c20faf3ca207e/Camostat_Ligand_CID_2536:hmTMPRSS7:20230418090535/Camostat_Ligand_CID_2536:hmTMPRSS7_out_3.pdbqt
 33 34 0 0 0
SMALL
GASTEIGER

@<TRIPOS>ATOM
      1  O        -11.4450    0.5410   13.2010 O.3     1  LIG1       -0.2750
      2  C        -11.8610    1.2420   12.1110 C.ar    1  LIG1        0.0790
      3  C        -11.2940    2.4840   11.8220 C.ar    1  LIG1        0.0380
      4  C        -11.7200    3.2020   10.7060 C.ar    1  LIG1        0.0100
      5  C        -12.7120    2.6790    9.8760 C.ar    1  LIG1       -0.0490
      6  C        -13.2790    1.4380   10.1650 C.ar    1  LIG1        0.0100
      7  C        -12.8530    0.7190   11.2830 C.ar    1  LIG1        0.0380
      8  C        -13.1730    3.4550    8.6700 C.3     1  LIG1        0.1490
      9  C        -12.4350    3.0740    7.4080 C.2     1  LIG1        0.2630
     10  O        -11.4020    3.5930    7.0070 O.2     1  LIG1       -0.2650
     11  O        -13.1020    2.0510    6.7770 O.3     1  LIG1       -0.3120
     12  C        -12.2970    1.0480    6.1940 C.3     1  LIG1        0.2810
     13  C        -12.4810   -0.2530    6.9470 C.2     1  LIG1        0.2430
     14  O        -13.4640   -0.9530    6.6920 O.2     1  LIG1       -0.2710
     15  N        -11.5100   -0.5920    7.8910 N.am    1  LIG1       -0.3590
     16  C        -10.3250    0.2020    8.2090 C.3     1  LIG1        0.1520
     17  C        -11.6380   -1.8380    8.6350 C.3     1  LIG1        0.1520
     18  C        -10.0590    0.5110   13.3710 C.2     1  LIG1        0.2980
     19  O         -9.4300    1.1360   14.2110 O.2     1  LIG1       -0.2590
     20  C         -9.4160   -0.3810   12.3720 C.ar    1  LIG1        0.0400
     21  C         -8.4010    0.1080   11.5510 C.ar    1  LIG1        0.0200
     22  C         -7.7980   -0.7310   10.6140 C.ar    1  LIG1        0.0330
     23  C         -8.2090   -2.0580   10.4970 C.ar    1  LIG1        0.0750
     24  C         -9.2250   -2.5480   11.3190 C.ar    1  LIG1        0.0330
     25  C         -9.8290   -1.7100   12.2560 C.ar    1  LIG1        0.0200
     26  N         -7.6040   -2.8990    9.5570 N.pl3   1  LIG1       -0.0660
     27  C         -6.6650   -3.7230    9.9560 C.cat   1  LIG1        0.6920
     28  N         -6.1760   -3.8750   11.2360 N.pl3   1  LIG1       -0.2330
     29  N         -6.0450   -4.5660    9.0640 N.pl3   1  LIG1       -0.2330
     30  H         -6.5370   -3.3280   11.9690 H       1  LIG1        0.1740
     31  H         -5.4640   -4.5310   11.4150 H       1  LIG1        0.1740
     32  H         -6.3050   -4.5560    8.1150 H       1  LIG1        0.1740
     33  H         -5.3420   -5.1810    9.3760 H       1  LIG1        0.1740
@<TRIPOS>BOND
     1    12    11    1
     2    12    13    1
     3    14    13    2
     4    11     9    1
     5    13    15   am
     6    10     9    2
     7     9     8    1
     8    15    16    1
     9    15    17    1
    10    32    29    1
    11     8     5    1
    12    29    33    1
    13    29    27    1
    14    26    27    2
    15    26    23    1
    16     5     6   ar
    17     5     4   ar
    18    27    28    1
    19     6     7   ar
    20    23    22   ar
    21    23    24   ar
    22    22    21   ar
    23     4     3   ar
    24    28    31    1
    25    28    30    1
    26     7     2   ar
    27    24    25   ar
    28    21    20   ar
    29     3     2   ar
    30     2     1    1
    31    25    20   ar
    32    20    18    1
    33     1    18    1
    34    18    19    2
@<TRIPOS>MOLECULE
./../dock_file/temp/27b69fd683714517436c20faf3ca207e/Camostat_Ligand_CID_2536:hmTMPRSS7:20230418090535/Camostat_Ligand_CID_2536:hmTMPRSS7_out_3.pdbqt
 33 34 0 0 0
SMALL
GASTEIGER

@<TRIPOS>ATOM
      1  O        -10.5890   -0.2150   13.9400 O.3     1  LIG1       -0.2750
      2  C        -11.0830    0.5540   12.9320 C.ar    1  LIG1        0.0790
      3  C        -12.1160    0.0730   12.1280 C.ar    1  LIG1        0.0380
      4  C        -12.6210    0.8610   11.0950 C.ar    1  LIG1        0.0100
      5  C        -12.0950    2.1330   10.8660 C.ar    1  LIG1       -0.0490
      6  C        -11.0620    2.6150   11.6700 C.ar    1  LIG1        0.0100
      7  C        -10.5560    1.8250   12.7040 C.ar    1  LIG1        0.0380
      8  C        -12.6410    2.9850    9.7500 C.3     1  LIG1        0.1490
      9  C        -12.6980    2.2580    8.4270 C.2     1  LIG1        0.2630
     10  O        -13.7210    1.9190    7.8490 O.2     1  LIG1       -0.2650
     11  O        -11.4210    2.0360    7.9700 O.3     1  LIG1       -0.3120
     12  C        -11.1330    0.7240    7.5360 C.3     1  LIG1        0.2810
     13  C         -9.7410    0.3320    7.9880 C.2     1  LIG1        0.2430
     14  O         -9.3930    0.6050    9.1400 O.2     1  LIG1       -0.2710
     15  N         -8.9290   -0.3310    7.0670 N.am    1  LIG1       -0.3590
     16  C         -9.3110   -0.6850    5.7020 C.3     1  LIG1        0.1520
     17  C         -7.5850   -0.7360    7.4590 C.3     1  LIG1        0.1520
     18  C         -9.2110   -0.4360   13.8720 C.2     1  LIG1        0.2980
     19  O         -8.3620    0.1490   14.5270 O.2     1  LIG1       -0.2590
     20  C         -8.8860   -1.4840   12.8720 C.ar    1  LIG1        0.0400
     21  C         -9.4390   -2.7590   12.9920 C.ar    1  LIG1        0.0200
     22  C         -9.1340   -3.7430   12.0520 C.ar    1  LIG1        0.0330
     23  C         -8.2750   -3.4540   10.9930 C.ar    1  LIG1        0.0750
     24  C         -7.7210   -2.1790   10.8720 C.ar    1  LIG1        0.0330
     25  C         -8.0260   -1.1940   11.8120 C.ar    1  LIG1        0.0200
     26  N         -7.9680   -4.4410   10.0500 N.pl3   1  LIG1       -0.0660
     27  C         -6.9200   -5.2040   10.2490 C.cat   1  LIG1        0.6920
     28  N         -6.0430   -5.1570   11.3110 N.pl3   1  LIG1       -0.2330
     29  N         -6.5850   -6.1860    9.3470 N.pl3   1  LIG1       -0.2330
     30  H         -6.1720   -4.4950   12.0270 H       1  LIG1        0.1740
     31  H         -5.2860   -5.7850   11.3510 H       1  LIG1        0.1740
     32  H         -7.1340   -6.3230    8.5420 H       1  LIG1        0.1740
     33  H         -5.7950   -6.7520    9.5070 H       1  LIG1        0.1740
@<TRIPOS>BOND
     1    16    15    1
     2    15    17    1
     3    15    13   am
     4    12    11    1
     5    12    13    1
     6    10     9    2
     7    11     9    1
     8    13    14    2
     9     9     8    1
    10    32    29    1
    11    29    33    1
    12    29    27    1
    13     8     5    1
    14    26    27    2
    15    26    23    1
    16    27    28    1
    17     5     4   ar
    18     5     6   ar
    19    24    23   ar
    20    24    25   ar
    21    23    22   ar
    22     4     3   ar
    23    28    31    1
    24    28    30    1
    25     6     7   ar
    26    25    20   ar
    27    22    21   ar
    28     3     2   ar
    29     7     2   ar
    30    20    21   ar
    31    20    18    1
    32     2     1    1
    33    18     1    1
    34    18    19    2
@<TRIPOS>MOLECULE
./../dock_file/temp/27b69fd683714517436c20faf3ca207e/Camostat_Ligand_CID_2536:hmTMPRSS7:20230418090535/Camostat_Ligand_CID_2536:hmTMPRSS7_out_3.pdbqt
 33 34 0 0 0
SMALL
GASTEIGER

@<TRIPOS>ATOM
      1  O         -9.6240    0.5500   11.1390 O.3     1  LIG1       -0.2750
      2  C         -9.6030    0.6090   12.4990 C.ar    1  LIG1        0.0790
      3  C         -8.5450    0.0380   13.2070 C.ar    1  LIG1        0.0380
      4  C         -8.5250    0.0980   14.5990 C.ar    1  LIG1        0.0100
      5  C         -9.5620    0.7300   15.2860 C.ar    1  LIG1       -0.0490
      6  C        -10.6200    1.3010   14.5780 C.ar    1  LIG1        0.0100
      7  C        -10.6400    1.2410   13.1850 C.ar    1  LIG1        0.0380
      8  C         -9.5400    0.7950   16.7910 C.3     1  LIG1        0.1490
      9  C         -9.9060   -0.5180   17.4430 C.2     1  LIG1        0.2630
     10  O         -9.1150   -1.3050   17.9440 O.2     1  LIG1       -0.2650
     11  O        -11.2680   -0.6930   17.3880 O.3     1  LIG1       -0.3120
     12  C        -11.7180   -1.9210   16.8560 C.3     1  LIG1        0.2810
     13  C        -12.6690   -1.6600   15.7060 C.2     1  LIG1        0.2430
     14  O        -13.7640   -1.1440   15.9470 O.2     1  LIG1       -0.2710
     15  N        -12.2420   -2.0150   14.4260 N.am    1  LIG1       -0.3590
     16  C        -10.9500   -2.6130   14.1000 C.3     1  LIG1        0.1520
     17  C        -13.1190   -1.7750   13.2870 C.3     1  LIG1        0.1520
     18  C        -10.5910   -0.3110   10.6160 C.2     1  LIG1        0.2980
     19  O        -10.5920   -1.5280   10.7200 O.2     1  LIG1       -0.2590
     20  C        -11.6390    0.4430    9.8820 C.ar    1  LIG1        0.0400
     21  C        -12.9180    0.5650   10.4230 C.ar    1  LIG1        0.0200
     22  C        -13.9020    1.2740    9.7340 C.ar    1  LIG1        0.0330
     23  C        -13.6070    1.8600    8.5030 C.ar    1  LIG1        0.0750
     24  C        -12.3280    1.7370    7.9610 C.ar    1  LIG1        0.0330
     25  C        -11.3430    1.0280    8.6500 C.ar    1  LIG1        0.0200
     26  N        -14.5940    2.5700    7.8120 N.pl3   1  LIG1       -0.0660
     27  C        -14.7630    3.8430    8.0790 C.cat   1  LIG1        0.6920
     28  N        -14.0650    4.6040    8.9920 N.pl3   1  LIG1       -0.2330
     29  N        -15.7220    4.5770    7.4220 N.pl3   1  LIG1       -0.2330
     30  H        -13.3500    4.1950    9.5290 H       1  LIG1        0.1740
     31  H        -14.2840    5.5580    9.1060 H       1  LIG1        0.1740
     32  H        -16.2900    4.1490    6.7420 H       1  LIG1        0.1740
     33  H        -15.8390    5.5320    7.6310 H       1  LIG1        0.1740
@<TRIPOS>BOND
     1    32    29    1
     2    29    33    1
     3    29    27    1
     4    26    27    2
     5    26    23    1
     6    24    23   ar
     7    24    25   ar
     8    27    28    1
     9    23    22   ar
    10    25    20   ar
    11    28    31    1
    12    28    30    1
    13    22    21   ar
    14    20    21   ar
    15    20    18    1
    16    18    19    2
    17    18     1    1
    18     1     2    1
    19     2     7   ar
    20     2     3   ar
    21     7     6   ar
    22     3     4   ar
    23    17    15    1
    24    16    15    1
    25    15    13   am
    26     6     5   ar
    27     4     5   ar
    28     5     8    1
    29    13    14    2
    30    13    12    1
    31     8     9    1
    32    12    11    1
    33    11     9    1
    34     9    10    2
@<TRIPOS>MOLECULE
./../dock_file/temp/27b69fd683714517436c20faf3ca207e/Camostat_Ligand_CID_2536:hmTMPRSS7:20230418090535/Camostat_Ligand_CID_2536:hmTMPRSS7_out_3.pdbqt
 33 34 0 0 0
SMALL
GASTEIGER

@<TRIPOS>ATOM
      1  O        -13.2990    2.0750    9.7490 O.3     1  LIG1       -0.2750
      2  C        -12.1080    1.6580   10.2590 C.ar    1  LIG1        0.0790
      3  C        -11.6260    2.2080   11.4470 C.ar    1  LIG1        0.0380
      4  C        -10.4060    1.7810   11.9690 C.ar    1  LIG1        0.0100
      5  C         -9.6660    0.8020   11.3040 C.ar    1  LIG1       -0.0490
      6  C        -10.1480    0.2520   10.1150 C.ar    1  LIG1        0.0100
      7  C        -11.3690    0.6800    9.5930 C.ar    1  LIG1        0.0380
      8  C         -8.3480    0.3410   11.8670 C.3     1  LIG1        0.1490
      9  C         -8.4900   -0.8200   12.8240 C.2     1  LIG1        0.2630
     10  O         -8.5230   -2.0000   12.5070 O.2     1  LIG1       -0.2650
     11  O         -8.5750   -0.3450   14.1120 O.3     1  LIG1       -0.3120
     12  C         -9.7440   -0.6860   14.8260 C.3     1  LIG1        0.2810
     13  C        -10.0790    0.4150   15.8110 C.2     1  LIG1        0.2430
     14  O        -10.8120    1.3370   15.4430 O.2     1  LIG1       -0.2710
     15  N         -9.5400    0.3150   17.0940 N.am    1  LIG1       -0.3590
     16  C         -8.6820   -0.7670   17.5710 C.3     1  LIG1        0.1520
     17  C         -9.8400    1.3460   18.0790 C.3     1  LIG1        0.1520
     18  C        -13.2410    3.3000    9.0800 C.2     1  LIG1        0.2980
     19  O        -13.2950    4.4020    9.6050 O.2     1  LIG1       -0.2590
     20  C        -13.1180    3.1030    7.6130 C.ar    1  LIG1        0.0400
     21  C        -14.2290    2.7130    6.8670 C.ar    1  LIG1        0.0200
     22  C        -14.1130    2.5290    5.4890 C.ar    1  LIG1        0.0330
     23  C        -12.8870    2.7340    4.8580 C.ar    1  LIG1        0.0750
     24  C        -11.7750    3.1250    5.6040 C.ar    1  LIG1        0.0330
     25  C        -11.8900    3.3090    6.9820 C.ar    1  LIG1        0.0200
     26  N        -12.7710    2.5490    3.4760 N.pl3   1  LIG1       -0.0660
     27  C        -12.9080    3.5860    2.6840 C.cat   1  LIG1        0.6920
     28  N        -13.1610    4.8900    3.0520 N.pl3   1  LIG1       -0.2330
     29  N        -12.8010    3.4470    1.3200 N.pl3   1  LIG1       -0.2330
     30  H        -13.2600    5.1220    4.0030 H       1  LIG1        0.1740
     31  H        -13.2450    5.5880    2.3630 H       1  LIG1        0.1740
     32  H        -12.6200    2.5630    0.9280 H       1  LIG1        0.1740
     33  H        -12.9050    4.2330    0.7360 H       1  LIG1        0.1740
@<TRIPOS>BOND
     1    33    29    1
     2    32    29    1
     3    29    27    1
     4    31    28    1
     5    27    28    1
     6    27    26    2
     7    28    30    1
     8    26    23    1
     9    23    22   ar
    10    23    24   ar
    11    22    21   ar
    12    24    25   ar
    13    21    20   ar
    14    25    20   ar
    15    20    18    1
    16    18    19    2
    17    18     1    1
    18     7     6   ar
    19     7     2   ar
    20     1     2    1
    21     6     5   ar
    22     2     3   ar
    23     5     8    1
    24     5     4   ar
    25     3     4   ar
    26     8     9    1
    27    10     9    2
    28     9    11    1
    29    11    12    1
    30    12    13    1
    31    14    13    2
    32    13    15   am
    33    15    16    1
    34    15    17    1
@<TRIPOS>MOLECULE
./../dock_file/temp/27b69fd683714517436c20faf3ca207e/Camostat_Ligand_CID_2536:hmTMPRSS7:20230418090535/Camostat_Ligand_CID_2536:hmTMPRSS7_out_3.pdbqt
 33 34 0 0 0
SMALL
GASTEIGER

@<TRIPOS>ATOM
      1  O          5.9460    2.9070   14.2050 O.3     1  LIG1       -0.2750
      2  C          6.7590    2.8010   13.1190 C.ar    1  LIG1        0.0790
      3  C          6.5380    3.6030   11.9990 C.ar    1  LIG1        0.0380
      4  C          7.3710    3.4940   10.8870 C.ar    1  LIG1        0.0100
      5  C          8.4280    2.5840   10.8930 C.ar    1  LIG1       -0.0490
      6  C          8.6500    1.7810   12.0130 C.ar    1  LIG1        0.0100
      7  C          7.8160    1.8900   13.1260 C.ar    1  LIG1        0.0380
      8  C          9.3290    2.4660    9.6910 C.3     1  LIG1        0.1490
      9  C         10.2930    3.6220    9.5620 C.2     1  LIG1        0.2630
     10  O         11.0300    4.0320   10.4470 O.2     1  LIG1       -0.2650
     11  O         10.2160    4.1430    8.2920 O.3     1  LIG1       -0.3120
     12  C          9.2310    3.5860    7.4470 C.3     1  LIG1        0.2810
     13  C          9.5200    3.9650    6.0090 C.2     1  LIG1        0.2430
     14  O          9.4930    5.1570    5.6920 O.2     1  LIG1       -0.2710
     15  N          9.8140    2.9310    5.1190 N.am    1  LIG1       -0.3590
     16  C          9.8710    1.5110    5.4590 C.3     1  LIG1        0.1520
     17  C         10.1080    3.2460    3.7270 C.3     1  LIG1        0.1520
     18  C          4.7740    2.1530   14.1210 C.2     1  LIG1        0.2980
     19  O          3.7250    2.5200   13.6140 O.2     1  LIG1       -0.2590
     20  C          4.9480    0.8190   14.7510 C.ar    1  LIG1        0.0400
     21  C          5.6040    0.7080   15.9760 C.ar    1  LIG1        0.0200
     22  C          5.7670   -0.5450   16.5680 C.ar    1  LIG1        0.0330
     23  C          5.2760   -1.6860   15.9340 C.ar    1  LIG1        0.0750
     24  C          4.6210   -1.5750   14.7080 C.ar    1  LIG1        0.0330
     25  C          4.4570   -0.3220   14.1160 C.ar    1  LIG1        0.0200
     26  N          5.4410   -2.9420   16.5280 N.pl3   1  LIG1       -0.0660
     27  C          4.4820   -3.4140   17.2880 C.cat   1  LIG1        0.6920
     28  N          3.2820   -2.8070   17.5920 N.pl3   1  LIG1       -0.2330
     29  N          4.6040   -4.6440   17.8900 N.pl3   1  LIG1       -0.2330
     30  H          3.0730   -1.9190   17.2230 H       1  LIG1        0.1740
     31  H          2.6360   -3.2620   18.1800 H       1  LIG1        0.1740
     32  H          5.4170   -5.1810   17.7510 H       1  LIG1        0.1740
     33  H          3.8770   -4.9880   18.4580 H       1  LIG1        0.1740
@<TRIPOS>BOND
     1    17    15    1
     2    15    16    1
     3    15    13   am
     4    14    13    2
     5    13    12    1
     6    12    11    1
     7    11     9    1
     8     9     8    1
     9     9    10    2
    10     8     5    1
    11     4     5   ar
    12     4     3   ar
    13     5     6   ar
    14     3     2   ar
    15     6     7   ar
    16     2     7   ar
    17     2     1    1
    18    19    18    2
    19    25    24   ar
    20    25    20   ar
    21    18     1    1
    22    18    20    1
    23    24    23   ar
    24    20    21   ar
    25    23    26    1
    26    23    22   ar
    27    21    22   ar
    28    26    27    2
    29    30    28    1
    30    27    28    1
    31    27    29    1
    32    28    31    1
    33    32    29    1
    34    29    33    1
@<TRIPOS>MOLECULE
./../dock_file/temp/27b69fd683714517436c20faf3ca207e/Camostat_Ligand_CID_2536:hmTMPRSS7:20230418090535/Camostat_Ligand_CID_2536:hmTMPRSS7_out_3.pdbqt
 33 34 0 0 0
SMALL
GASTEIGER

@<TRIPOS>ATOM
      1  O        -10.5910   -0.2450   13.8660 O.3     1  LIG1       -0.2750
      2  C        -11.0760    0.5680   12.8890 C.ar    1  LIG1        0.0790
      3  C        -10.5130    1.8290   12.6860 C.ar    1  LIG1        0.0380
      4  C        -11.0090    2.6610   11.6840 C.ar    1  LIG1        0.0100
      5  C        -12.0690    2.2340   10.8830 C.ar    1  LIG1       -0.0490
      6  C        -12.6320    0.9740   11.0860 C.ar    1  LIG1        0.0100
      7  C        -12.1350    0.1410   12.0880 C.ar    1  LIG1        0.0380
      8  C        -12.6050    3.1340    9.8000 C.3     1  LIG1        0.1490
      9  C        -12.8180    2.4150    8.4890 C.2     1  LIG1        0.2630
     10  O        -13.9050    2.1450    7.9970 O.2     1  LIG1       -0.2650
     11  O        -11.6000    2.1110    7.9290 O.3     1  LIG1       -0.3120
     12  C        -11.5080    0.8630    7.2750 C.3     1  LIG1        0.2810
     13  C        -10.2390    0.1550    7.7030 C.2     1  LIG1        0.2430
     14  O        -10.1790   -0.3190    8.8410 O.2     1  LIG1       -0.2710
     15  N         -9.2040    0.0730    6.7710 N.am    1  LIG1       -0.3590
     16  C         -9.2430    0.6070    5.4110 C.3     1  LIG1        0.1520
     17  C         -7.9660   -0.6060    7.1330 C.3     1  LIG1        0.1520
     18  C         -9.2110   -0.4520   13.8100 C.2     1  LIG1        0.2980
     19  O         -8.3830    0.0600   14.5480 O.2     1  LIG1       -0.2590
     20  C         -8.8530   -1.3810   12.7080 C.ar    1  LIG1        0.0400
     21  C         -8.0480   -0.9410   11.6590 C.ar    1  LIG1        0.0200
     22  C         -7.7110   -1.8140   10.6240 C.ar    1  LIG1        0.0330
     23  C         -8.1820   -3.1260   10.6380 C.ar    1  LIG1        0.0750
     24  C         -8.9880   -3.5670   11.6870 C.ar    1  LIG1        0.0330
     25  C         -9.3250   -2.6950   12.7220 C.ar    1  LIG1        0.0200
     26  N         -7.8450   -4.0020    9.6000 N.pl3   1  LIG1       -0.0660
     27  C         -8.6490   -4.1010    8.5680 C.cat   1  LIG1        0.6920
     28  N         -9.8330   -3.4270    8.3650 N.pl3   1  LIG1       -0.2330
     29  N         -8.3540   -4.9490    7.5270 N.pl3   1  LIG1       -0.2330
     30  H        -10.1580   -2.7880    9.0400 H       1  LIG1        0.1740
     31  H        -10.3550   -3.5860    7.5460 H       1  LIG1        0.1740
     32  H         -7.5320   -5.4900    7.5510 H       1  LIG1        0.1740
     33  H         -8.9650   -5.0150    6.7580 H       1  LIG1        0.1740
@<TRIPOS>BOND
     1    16    15    1
     2    33    29    1
     3    15    17    1
     4    15    13   am
     5    12    13    1
     6    12    11    1
     7    29    32    1
     8    29    27    1
     9    31    28    1
    10    13    14    2
    11    11     9    1
    12    10     9    2
    13    28    27    1
    14    28    30    1
    15     9     8    1
    16    27    26    2
    17    26    23    1
    18     8     5    1
    19    22    23   ar
    20    22    21   ar
    21    23    24   ar
    22     5     6   ar
    23     5     4   ar
    24     6     7   ar
    25    21    20   ar
    26     4     3   ar
    27    24    25   ar
    28     7     2   ar
    29     3     2   ar
    30    20    25   ar
    31    20    18    1
    32     2     1    1
    33    18     1    1
    34    18    19    2
@<TRIPOS>MOLECULE
./../dock_file/temp/27b69fd683714517436c20faf3ca207e/Camostat_Ligand_CID_2536:hmTMPRSS7:20230418090535/Camostat_Ligand_CID_2536:hmTMPRSS7_out_3.pdbqt
 33 34 0 0 0
SMALL
GASTEIGER

@<TRIPOS>ATOM
      1  O          0.5350    4.7690    2.4060 O.3     1  LIG1       -0.2750
      2  C         -0.0160    4.1990    3.5120 C.ar    1  LIG1        0.0790
      3  C          0.6240    4.3090    4.7460 C.ar    1  LIG1        0.0380
      4  C          0.0590    3.7250    5.8790 C.ar    1  LIG1        0.0100
      5  C         -1.1470    3.0310    5.7790 C.ar    1  LIG1       -0.0490
      6  C         -1.7870    2.9200    4.5440 C.ar    1  LIG1        0.0100
      7  C         -1.2220    3.5050    3.4100 C.ar    1  LIG1        0.0380
      8  C         -1.7580    2.3990    7.0030 C.3     1  LIG1        0.1490
      9  C         -0.8730    1.3450    7.6250 C.2     1  LIG1        0.2630
     10  O         -0.2820    1.4550    8.6900 O.2     1  LIG1       -0.2650
     11  O         -0.8350    0.2380    6.8110 O.3     1  LIG1       -0.3120
     12  C          0.4300   -0.3620    6.6320 C.3     1  LIG1        0.2810
     13  C          1.0990    0.2160    5.4030 C.2     1  LIG1        0.2430
     14  O          0.5530    0.0700    4.3060 O.2     1  LIG1       -0.2710
     15  N          2.3040    0.8950    5.5860 N.am    1  LIG1       -0.3590
     16  C          2.9730    1.1010    6.8690 C.3     1  LIG1        0.1520
     17  C          2.9810    1.4760    4.4340 C.3     1  LIG1        0.1520
     18  C          0.4210    6.1610    2.3580 C.2     1  LIG1        0.2980
     19  O          0.9680    6.9470    3.1170 O.2     1  LIG1       -0.2590
     20  C         -0.4820    6.5870    1.2590 C.ar    1  LIG1        0.0400
     21  C         -0.9530    5.6490    0.3410 C.ar    1  LIG1        0.0200
     22  C         -1.8010    6.0490   -0.6920 C.ar    1  LIG1        0.0330
     23  C         -2.1780    7.3870   -0.8070 C.ar    1  LIG1        0.0750
     24  C         -1.7060    8.3260    0.1110 C.ar    1  LIG1        0.0330
     25  C         -0.8580    7.9250    1.1440 C.ar    1  LIG1        0.0200
     26  N         -3.0280    7.7880   -1.8430 N.pl3   1  LIG1       -0.0660
     27  C         -2.5020    8.2440   -2.9540 C.cat   1  LIG1        0.6920
     28  N         -1.1630    8.3840   -3.2480 N.pl3   1  LIG1       -0.2330
     29  N         -3.3030    8.6480   -3.9960 N.pl3   1  LIG1       -0.2330
     30  H         -0.4840    8.1300   -2.5830 H       1  LIG1        0.1740
     31  H         -0.8860    8.7410   -4.1230 H       1  LIG1        0.1740
     32  H         -4.2820    8.5970   -3.9130 H       1  LIG1        0.1740
     33  H         -2.8960    8.9880   -4.8260 H       1  LIG1        0.1740
@<TRIPOS>BOND
     1    33    29    1
     2    31    28    1
     3    29    32    1
     4    29    27    1
     5    28    27    1
     6    28    30    1
     7    27    26    2
     8    26    23    1
     9    23    22   ar
    10    23    24   ar
    11    22    21   ar
    12    24    25   ar
    13    21    20   ar
    14    25    20   ar
    15    20    18    1
    16    18     1    1
    17    18    19    2
    18     1     2    1
    19     7     2   ar
    20     7     6   ar
    21     2     3   ar
    22    14    13    2
    23    17    15    1
    24     6     5   ar
    25     3     4   ar
    26    13    15   am
    27    13    12    1
    28    15    16    1
    29     5     4   ar
    30     5     8    1
    31    12    11    1
    32    11     9    1
    33     8     9    1
    34     9    10    2
@<TRIPOS>MOLECULE
./../dock_file/temp/27b69fd683714517436c20faf3ca207e/Camostat_Ligand_CID_2536:hmTMPRSS7:20230418090535/Camostat_Ligand_CID_2536:hmTMPRSS7_out_3.pdbqt
 33 34 0 0 0
SMALL
GASTEIGER

@<TRIPOS>ATOM
      1  O        -13.5230    3.6420    9.3780 O.3     1  LIG1       -0.2750
      2  C        -13.3730    3.6240    8.0250 C.ar    1  LIG1        0.0790
      3  C        -12.1330    3.3170    7.4640 C.ar    1  LIG1        0.0380
      4  C        -11.9800    3.2980    6.0790 C.ar    1  LIG1        0.0100
      5  C        -13.0660    3.5850    5.2520 C.ar    1  LIG1       -0.0490
      6  C        -14.3060    3.8920    5.8130 C.ar    1  LIG1        0.0100
      7  C        -14.4600    3.9110    7.2000 C.ar    1  LIG1        0.0380
      8  C        -12.9010    3.5650    3.7550 C.3     1  LIG1        0.1490
      9  C        -12.9470    2.1700    3.1760 C.2     1  LIG1        0.2630
     10  O        -13.9500    1.6110    2.7550 O.2     1  LIG1       -0.2650
     11  O        -11.6860    1.6250    3.1920 O.3     1  LIG1       -0.3120
     12  C        -10.7120    2.2800    2.4080 C.3     1  LIG1        0.2810
     13  C         -9.4090    2.3620    3.1770 C.2     1  LIG1        0.2430
     14  O         -9.3880    1.9800    4.3500 O.2     1  LIG1       -0.2710
     15  N         -8.2950    2.8620    2.5020 N.am    1  LIG1       -0.3590
     16  C         -8.2780    3.3090    1.1110 C.3     1  LIG1        0.1520
     17  C         -7.0180    2.9520    3.1970 C.3     1  LIG1        0.1520
     18  C        -13.7740    2.3900    9.9450 C.2     1  LIG1        0.2980
     19  O        -14.8110    1.7530    9.8340 O.2     1  LIG1       -0.2590
     20  C        -12.6090    1.9160   10.7340 C.ar    1  LIG1        0.0400
     21  C        -11.5660    2.7930   11.0330 C.ar    1  LIG1        0.0200
     22  C        -10.4720    2.3470   11.7750 C.ar    1  LIG1        0.0330
     23  C        -10.4200    1.0260   12.2170 C.ar    1  LIG1        0.0750
     24  C        -11.4630    0.1490   11.9190 C.ar    1  LIG1        0.0330
     25  C        -12.5570    0.5940   11.1770 C.ar    1  LIG1        0.0200
     26  N         -9.3230    0.5800   12.9610 N.pl3   1  LIG1       -0.0660
     27  C         -9.3260    0.7530   14.2610 C.cat   1  LIG1        0.6920
     28  N        -10.3120    1.3430   15.0230 N.pl3   1  LIG1       -0.2330
     29  N         -8.2670    0.3290   15.0290 N.pl3   1  LIG1       -0.2330
     30  H        -11.1250    1.6910   14.5910 H       1  LIG1        0.1740
     31  H        -10.2010    1.4180   15.9980 H       1  LIG1        0.1740
     32  H         -7.4960   -0.1110   14.6040 H       1  LIG1        0.1740
     33  H         -8.2810    0.4640   16.0040 H       1  LIG1        0.1740
@<TRIPOS>BOND
     1    16    15    1
     2    12    13    1
     3    12    11    1
     4    15    13   am
     5    15    17    1
     6    10     9    2
     7     9    11    1
     8     9     8    1
     9    13    14    2
    10     8     5    1
    11     5     6   ar
    12     5     4   ar
    13     6     7   ar
    14     4     3   ar
    15     7     2   ar
    16     3     2   ar
    17     2     1    1
    18     1    18    1
    19    19    18    2
    20    18    20    1
    21    20    21   ar
    22    20    25   ar
    23    21    22   ar
    24    25    24   ar
    25    22    23   ar
    26    24    23   ar
    27    23    26    1
    28    26    27    2
    29    27    28    1
    30    27    29    1
    31    30    28    1
    32    32    29    1
    33    28    31    1
    34    29    33    1
@<TRIPOS>MOLECULE
./../dock_file/temp/27b69fd683714517436c20faf3ca207e/Camostat_Ligand_CID_2536:hmTMPRSS7:20230418090535/Camostat_Ligand_CID_2536:hmTMPRSS7_out_3.pdbqt
 33 34 0 0 0
SMALL
GASTEIGER

@<TRIPOS>ATOM
      1  O        -13.4440    3.6890    9.4070 O.3     1  LIG1       -0.2750
      2  C        -13.4630    3.7310    8.0470 C.ar    1  LIG1        0.0790
      3  C        -12.3090    3.4280    7.3230 C.ar    1  LIG1        0.0380
      4  C        -12.3290    3.4710    5.9300 C.ar    1  LIG1        0.0100
      5  C        -13.5030    3.8150    5.2590 C.ar    1  LIG1       -0.0490
      6  C        -14.6570    4.1170    5.9830 C.ar    1  LIG1        0.0100
      7  C        -14.6370    4.0740    7.3770 C.ar    1  LIG1        0.0380
      8  C        -13.5250    3.8610    3.7530 C.3     1  LIG1        0.1490
      9  C        -14.3000    2.7180    3.1400 C.2     1  LIG1        0.2630
     10  O        -15.4520    2.7790    2.7360 O.2     1  LIG1       -0.2650
     11  O        -13.5080    1.5940    3.1040 O.3     1  LIG1       -0.3120
     12  C        -14.0290    0.4430    3.7360 C.3     1  LIG1        0.2810
     13  C        -13.1720    0.0870    4.9320 C.2     1  LIG1        0.2430
     14  O        -11.9880   -0.2080    4.7470 O.2     1  LIG1       -0.2710
     15  N        -13.7760    0.1230    6.1890 N.am    1  LIG1       -0.3590
     16  C        -15.1680    0.4810    6.4500 C.3     1  LIG1        0.1520
     17  C        -12.9890   -0.2040    7.3710 C.3     1  LIG1        0.1520
     18  C        -13.7140    2.4300    9.9480 C.2     1  LIG1        0.2980
     19  O        -14.7540    1.8040    9.8100 O.2     1  LIG1       -0.2590
     20  C        -12.5650    1.9310   10.7460 C.ar    1  LIG1        0.0400
     21  C        -12.5350    0.6040   11.1700 C.ar    1  LIG1        0.0200
     22  C        -11.4550    0.1350   11.9190 C.ar    1  LIG1        0.0330
     23  C        -10.4070    0.9960   12.2450 C.ar    1  LIG1        0.0750
     24  C        -10.4370    2.3240   11.8210 C.ar    1  LIG1        0.0330
     25  C        -11.5170    2.7920   11.0720 C.ar    1  LIG1        0.0200
     26  N         -9.3240    0.5260   12.9970 N.pl3   1  LIG1       -0.0660
     27  C         -9.3150    0.7320   14.2920 C.cat   1  LIG1        0.6920
     28  N        -10.2750    1.3780   15.0410 N.pl3   1  LIG1       -0.2330
     29  N         -8.2700    0.2860   15.0660 N.pl3   1  LIG1       -0.2330
     30  H        -11.0760    1.7450   14.6040 H       1  LIG1        0.1740
     31  H        -10.1570    1.4730   16.0140 H       1  LIG1        0.1740
     32  H         -7.5180   -0.1930   14.6500 H       1  LIG1        0.1740
     33  H         -8.2750    0.4460   16.0380 H       1  LIG1        0.1740
@<TRIPOS>BOND
     1    10     9    2
     2    11     9    1
     3    11    12    1
     4     9     8    1
     5    12    13    1
     6     8     5    1
     7    14    13    2
     8    13    15   am
     9     5     4   ar
    10     5     6   ar
    11     4     3   ar
    12     6     7   ar
    13    15    16    1
    14    15    17    1
    15     3     2   ar
    16     7     2   ar
    17     2     1    1
    18     1    18    1
    19    19    18    2
    20    18    20    1
    21    20    25   ar
    22    20    21   ar
    23    25    24   ar
    24    21    22   ar
    25    24    23   ar
    26    22    23   ar
    27    23    26    1
    28    26    27    2
    29    27    28    1
    30    27    29    1
    31    30    28    1
    32    32    29    1
    33    28    31    1
    34    29    33    1
