@<TRIPOS>MOLECULE
./../dock_file/temp/27b69fd683714517436c20faf3ca207e/Camostat_Ligand_CID_2536:hmTMPRSS7:20230418090535/Camostat_Ligand_CID_2536:hmTMPRSS7_out_4.pdbqt
 33 34 0 0 0
SMALL
GASTEIGER

@<TRIPOS>ATOM
      1  O          7.1040   24.9680   29.8820 O.3     1  LIG1       -0.2750
      2  C          8.4630   24.9090   29.9200 C.ar    1  LIG1        0.0790
      3  C          9.1110   24.4840   31.0800 C.ar    1  LIG1        0.0380
      4  C         10.5040   24.4230   31.1180 C.ar    1  LIG1        0.0100
      5  C         11.2490   24.7870   29.9970 C.ar    1  LIG1       -0.0490
      6  C         10.6010   25.2120   28.8370 C.ar    1  LIG1        0.0100
      7  C          9.2080   25.2720   28.7980 C.ar    1  LIG1        0.0380
      8  C         12.7540   24.7210   30.0380 C.3     1  LIG1        0.1490
      9  C         13.3820   24.7370   28.6640 C.2     1  LIG1        0.2630
     10  O         13.6170   25.7390   28.0030 O.2     1  LIG1       -0.2650
     11  O         13.6510   23.4480   28.2680 O.3     1  LIG1       -0.3120
     12  C         14.0620   23.2790   26.9280 C.3     1  LIG1        0.2810
     13  C         14.9870   22.0840   26.8250 C.2     1  LIG1        0.2430
     14  O         14.4920   20.9570   26.7410 O.2     1  LIG1       -0.2710
     15  N         16.3600   22.3320   26.8220 N.am    1  LIG1       -0.3590
     16  C         16.9830   23.6510   26.9040 C.3     1  LIG1        0.1520
     17  C         17.2890   21.2140   26.7170 C.3     1  LIG1        0.1520
     18  C          6.5520   24.7090   28.6250 C.2     1  LIG1        0.2980
     19  O          6.7700   23.7200   27.9420 O.2     1  LIG1       -0.2590
     20  C          5.6570   25.8130   28.1950 C.ar    1  LIG1        0.0400
     21  C          5.4210   26.8910   29.0470 C.ar    1  LIG1        0.0200
     22  C          4.5810   27.9290   28.6430 C.ar    1  LIG1        0.0330
     23  C          3.9760   27.8880   27.3870 C.ar    1  LIG1        0.0750
     24  C          4.2120   26.8090   26.5340 C.ar    1  LIG1        0.0330
     25  C          5.0520   25.7720   26.9390 C.ar    1  LIG1        0.0200
     26  N          3.1330   28.9280   26.9820 N.pl3   1  LIG1       -0.0660
     27  C          3.5840   29.8120   26.1240 C.cat   1  LIG1        0.6920
     28  N          4.8350   29.8510   25.5460 N.pl3   1  LIG1       -0.2330
     29  N          2.7880   30.8500   25.7010 N.pl3   1  LIG1       -0.2330
     30  H          5.5010   29.1620   25.7670 H       1  LIG1        0.1740
     31  H          5.0610   30.5690   24.9110 H       1  LIG1        0.1740
     32  H          1.8690   30.9350   26.0410 H       1  LIG1        0.1740
     33  H          3.1380   31.5070   25.0560 H       1  LIG1        0.1740
@<TRIPOS>BOND
     1    31    28    1
     2    33    29    1
     3    28    30    1
     4    28    27    1
     5    29    32    1
     6    29    27    1
     7    27    26    2
     8    24    25   ar
     9    24    23   ar
    10    17    15    1
    11    14    13    2
    12    15    13   am
    13    15    16    1
    14    13    12    1
    15    12    11    1
    16    25    20   ar
    17    26    23    1
    18    23    22   ar
    19    19    18    2
    20    10     9    2
    21    20    18    1
    22    20    21   ar
    23    11     9    1
    24    18     1    1
    25    22    21   ar
    26     9     8    1
    27     7     6   ar
    28     7     2   ar
    29     6     5   ar
    30     1     2    1
    31     2     3   ar
    32     5     8    1
    33     5     4   ar
    34     3     4   ar
@<TRIPOS>MOLECULE
./../dock_file/temp/27b69fd683714517436c20faf3ca207e/Camostat_Ligand_CID_2536:hmTMPRSS7:20230418090535/Camostat_Ligand_CID_2536:hmTMPRSS7_out_4.pdbqt
 33 34 0 0 0
SMALL
GASTEIGER

@<TRIPOS>ATOM
      1  O          9.0720   25.8810   31.0010 O.3     1  LIG1       -0.2750
      2  C         10.2370   25.6770   30.3290 C.ar    1  LIG1        0.0790
      3  C         10.4530   26.2990   29.0990 C.ar    1  LIG1        0.0380
      4  C         11.6470   26.0890   28.4110 C.ar    1  LIG1        0.0100
      5  C         12.6280   25.2580   28.9530 C.ar    1  LIG1       -0.0490
      6  C         12.4120   24.6360   30.1830 C.ar    1  LIG1        0.0100
      7  C         11.2170   24.8450   30.8710 C.ar    1  LIG1        0.0380
      8  C         13.9190   25.0310   28.2100 C.3     1  LIG1        0.1490
      9  C         14.6050   23.7440   28.6010 C.2     1  LIG1        0.2630
     10  O         15.4950   23.6390   29.4340 O.2     1  LIG1       -0.2650
     11  O         14.0750   22.7020   27.8760 O.3     1  LIG1       -0.3120
     12  C         14.6150   22.5000   26.5870 C.3     1  LIG1        0.2810
     13  C         15.5480   21.3070   26.6070 C.2     1  LIG1        0.2430
     14  O         15.0610   20.1740   26.6260 O.2     1  LIG1       -0.2710
     15  N         16.9190   21.5640   26.5920 N.am    1  LIG1       -0.3590
     16  C         17.5330   22.8890   26.5540 C.3     1  LIG1        0.1520
     17  C         17.8560   20.4480   26.6010 C.3     1  LIG1        0.1520
     18  C          8.1590   24.8280   30.9020 C.2     1  LIG1        0.2980
     19  O          8.1810   23.8010   31.5630 O.2     1  LIG1       -0.2590
     20  C          7.1380   25.1010   29.8580 C.ar    1  LIG1        0.0400
     21  C          6.0300   25.8930   30.1570 C.ar    1  LIG1        0.0200
     22  C          5.0710   26.1490   29.1760 C.ar    1  LIG1        0.0330
     23  C          5.2210   25.6140   27.8970 C.ar    1  LIG1        0.0750
     24  C          6.3300   24.8220   27.5980 C.ar    1  LIG1        0.0330
     25  C          7.2880   24.5650   28.5790 C.ar    1  LIG1        0.0200
     26  N          4.2600   25.8710   26.9140 N.pl3   1  LIG1       -0.0660
     27  C          4.2340   27.0540   26.3470 C.cat   1  LIG1        0.6920
     28  N          5.0670   28.1210   26.6040 N.pl3   1  LIG1       -0.2330
     29  N          3.3060   27.3470   25.3760 N.pl3   1  LIG1       -0.2330
     30  H          5.7760   28.0400   27.2810 H       1  LIG1        0.1740
     31  H          4.9500   28.9660   26.1110 H       1  LIG1        0.1740
     32  H          2.6510   26.6660   25.1000 H       1  LIG1        0.1740
     33  H          3.2970   28.2380   24.9570 H       1  LIG1        0.1740
@<TRIPOS>BOND
     1    33    29    1
     2    32    29    1
     3    29    27    1
     4    31    28    1
     5    27    28    1
     6    27    26    2
     7    16    15    1
     8    12    13    1
     9    12    11    1
    10    15    17    1
    11    15    13   am
    12    28    30    1
    13    13    14    2
    14    26    23    1
    15    24    23   ar
    16    24    25   ar
    17    11     9    1
    18    23    22   ar
    19     8     9    1
    20     8     5    1
    21     4     5   ar
    22     4     3   ar
    23    25    20   ar
    24     9    10    2
    25     5     6   ar
    26     3     2   ar
    27    22    21   ar
    28    20    21   ar
    29    20    18    1
    30     6     7   ar
    31     2     7   ar
    32     2     1    1
    33    18     1    1
    34    18    19    2
@<TRIPOS>MOLECULE
./../dock_file/temp/27b69fd683714517436c20faf3ca207e/Camostat_Ligand_CID_2536:hmTMPRSS7:20230418090535/Camostat_Ligand_CID_2536:hmTMPRSS7_out_4.pdbqt
 33 34 0 0 0
SMALL
GASTEIGER

@<TRIPOS>ATOM
      1  O          6.6180   24.2330   29.1830 O.3     1  LIG1       -0.2750
      2  C          7.8610   24.6640   29.5290 C.ar    1  LIG1        0.0790
      3  C          8.4570   24.2080   30.7050 C.ar    1  LIG1        0.0380
      4  C          9.7310   24.6490   31.0590 C.ar    1  LIG1        0.0100
      5  C         10.4120   25.5470   30.2360 C.ar    1  LIG1       -0.0490
      6  C          9.8160   26.0030   29.0600 C.ar    1  LIG1        0.0100
      7  C          8.5410   25.5620   28.7060 C.ar    1  LIG1        0.0380
      8  C         11.7890   26.0240   30.6180 C.3     1  LIG1        0.1490
      9  C         12.8910   25.1720   30.0330 C.2     1  LIG1        0.2630
     10  O         13.4380   24.2360   30.5980 O.2     1  LIG1       -0.2650
     11  O         13.1860   25.6110   28.7640 O.3     1  LIG1       -0.3120
     12  C         14.3870   25.1290   28.2000 C.3     1  LIG1        0.2810
     13  C         14.0890   23.9480   27.3000 C.2     1  LIG1        0.2430
     14  O         13.1550   24.0340   26.4970 O.2     1  LIG1       -0.2710
     15  N         14.9040   22.8220   27.4260 N.am    1  LIG1       -0.3590
     16  C         16.0260   22.6880   28.3510 C.3     1  LIG1        0.1520
     17  C         14.6610   21.6640   26.5740 C.3     1  LIG1        0.1520
     18  C          5.5760   24.9750   29.7440 C.2     1  LIG1        0.2980
     19  O          5.0510   24.7620   30.8260 O.2     1  LIG1       -0.2590
     20  C          5.1560   26.0770   28.8410 C.ar    1  LIG1        0.0400
     21  C          5.0720   25.8580   27.4660 C.ar    1  LIG1        0.0200
     22  C          4.6770   26.8920   26.6180 C.ar    1  LIG1        0.0330
     23  C          4.3670   28.1460   27.1440 C.ar    1  LIG1        0.0750
     24  C          4.4510   28.3660   28.5190 C.ar    1  LIG1        0.0330
     25  C          4.8460   27.3310   29.3670 C.ar    1  LIG1        0.0200
     26  N          3.9710   29.1840   26.2930 N.pl3   1  LIG1       -0.0660
     27  C          2.7440   29.1900   25.8300 C.cat   1  LIG1        0.6920
     28  N          1.7510   28.2690   26.0840 N.pl3   1  LIG1       -0.2330
     29  N          2.3150   30.1920   24.9920 N.pl3   1  LIG1       -0.2330
     30  H          1.9310   27.5000   26.6710 H       1  LIG1        0.1740
     31  H          0.8610   28.3800   25.6760 H       1  LIG1        0.1740
     32  H          2.9310   30.9150   24.7330 H       1  LIG1        0.1740
     33  H          1.3910   30.1870   24.6510 H       1  LIG1        0.1740
@<TRIPOS>BOND
     1    33    29    1
     2    32    29    1
     3    29    27    1
     4    31    28    1
     5    27    28    1
     6    27    26    2
     7    28    30    1
     8    26    23    1
     9    14    13    2
    10    17    15    1
    11    22    23   ar
    12    22    21   ar
    13    23    24   ar
    14    13    15   am
    15    13    12    1
    16    15    16    1
    17    21    20   ar
    18    12    11    1
    19    24    25   ar
    20     7     6   ar
    21     7     2   ar
    22    11     9    1
    23    20    25   ar
    24    20    18    1
    25     6     5   ar
    26     1     2    1
    27     1    18    1
    28     2     3   ar
    29    18    19    2
    30     9    10    2
    31     9     8    1
    32     5     8    1
    33     5     4   ar
    34     3     4   ar
@<TRIPOS>MOLECULE
./../dock_file/temp/27b69fd683714517436c20faf3ca207e/Camostat_Ligand_CID_2536:hmTMPRSS7:20230418090535/Camostat_Ligand_CID_2536:hmTMPRSS7_out_4.pdbqt
 33 34 0 0 0
SMALL
GASTEIGER

@<TRIPOS>ATOM
      1  O          9.8750   27.3200   28.7320 O.3     1  LIG1       -0.2750
      2  C         11.0280   26.6190   28.9050 C.ar    1  LIG1        0.0790
      3  C         12.1630   27.2550   29.4100 C.ar    1  LIG1        0.0380
      4  C         13.3440   26.5360   29.5870 C.ar    1  LIG1        0.0100
      5  C         13.3910   25.1800   29.2610 C.ar    1  LIG1       -0.0490
      6  C         12.2570   24.5440   28.7570 C.ar    1  LIG1        0.0100
      7  C         11.0750   25.2640   28.5790 C.ar    1  LIG1        0.0380
      8  C         14.6680   24.4030   29.4530 C.3     1  LIG1        0.1490
      9  C         15.3860   24.1210   28.1540 C.2     1  LIG1        0.2630
     10  O         15.4750   24.8940   27.2110 O.2     1  LIG1       -0.2650
     11  O         15.9290   22.8580   28.1940 O.3     1  LIG1       -0.3120
     12  C         16.3830   22.3340   26.9640 C.3     1  LIG1        0.2810
     13  C         15.6360   21.0540   26.6490 C.2     1  LIG1        0.2430
     14  O         14.4050   21.0490   26.7340 O.2     1  LIG1       -0.2710
     15  N         16.3930   19.9460   26.2690 N.am    1  LIG1       -0.3590
     16  C         17.8490   19.9170   26.1440 C.3     1  LIG1        0.1520
     17  C         15.7190   18.6940   25.9480 C.3     1  LIG1        0.1520
     18  C          8.8570   26.9830   29.6270 C.2     1  LIG1        0.2980
     19  O          8.9940   26.8060   30.8280 O.2     1  LIG1       -0.2590
     20  C          7.5530   26.8450   28.9290 C.ar    1  LIG1        0.0400
     21  C          7.3960   25.8850   27.9300 C.ar    1  LIG1        0.0200
     22  C          6.1710   25.7550   27.2750 C.ar    1  LIG1        0.0330
     23  C          5.1050   26.5860   27.6170 C.ar    1  LIG1        0.0750
     24  C          5.2620   27.5460   28.6170 C.ar    1  LIG1        0.0330
     25  C          6.4860   27.6760   29.2720 C.ar    1  LIG1        0.0200
     26  N          3.8770   26.4550   26.9600 N.pl3   1  LIG1       -0.0660
     27  C          3.5970   27.2720   25.9730 C.cat   1  LIG1        0.6920
     28  N          4.3890   28.2860   25.4780 N.pl3   1  LIG1       -0.2330
     29  N          2.4010   27.1770   25.3010 N.pl3   1  LIG1       -0.2330
     30  H          5.2720   28.4580   25.8740 H       1  LIG1        0.1740
     31  H          4.0680   28.8380   24.7280 H       1  LIG1        0.1740
     32  H          1.7450   26.4900   25.5580 H       1  LIG1        0.1740
     33  H          2.2030   27.7960   24.5610 H       1  LIG1        0.1740
@<TRIPOS>BOND
     1    33    29    1
     2    31    28    1
     3    29    32    1
     4    29    27    1
     5    28    30    1
     6    28    27    1
     7    17    15    1
     8    27    26    2
     9    16    15    1
    10    15    13   am
    11    13    14    2
    12    13    12    1
    13    26    23    1
    14    12    11    1
    15    10     9    2
    16    22    23   ar
    17    22    21   ar
    18    23    24   ar
    19    21    20   ar
    20     9    11    1
    21     9     8    1
    22     7     6   ar
    23     7     2   ar
    24    24    25   ar
    25     1     2    1
    26     1    18    1
    27     6     5   ar
    28     2     3   ar
    29    20    25   ar
    30    20    18    1
    31     5     8    1
    32     5     4   ar
    33     3     4   ar
    34    18    19    2
@<TRIPOS>MOLECULE
./../dock_file/temp/27b69fd683714517436c20faf3ca207e/Camostat_Ligand_CID_2536:hmTMPRSS7:20230418090535/Camostat_Ligand_CID_2536:hmTMPRSS7_out_4.pdbqt
 33 34 0 0 0
SMALL
GASTEIGER

@<TRIPOS>ATOM
      1  O          7.8040   23.8780   29.6880 O.3     1  LIG1       -0.2750
      2  C          6.9480   24.8790   29.3450 C.ar    1  LIG1        0.0790
      3  C          6.8520   25.2900   28.0150 C.ar    1  LIG1        0.0380
      4  C          5.9750   26.3150   27.6640 C.ar    1  LIG1        0.0100
      5  C          5.1920   26.9300   28.6420 C.ar    1  LIG1       -0.0490
      6  C          5.2890   26.5190   29.9720 C.ar    1  LIG1        0.0100
      7  C          6.1660   25.4930   30.3230 C.ar    1  LIG1        0.0380
      8  C          4.2450   28.0380   28.2620 C.3     1  LIG1        0.1490
      9  C          4.9290   29.1800   27.5490 C.2     1  LIG1        0.2630
     10  O          4.5470   29.6960   26.5080 O.2     1  LIG1       -0.2650
     11  O          6.0500   29.5540   28.2510 O.3     1  LIG1       -0.3120
     12  C          5.8270   30.2480   29.4610 C.3     1  LIG1        0.2810
     13  C          6.9410   29.9380   30.4390 C.2     1  LIG1        0.2430
     14  O          8.1110   30.0490   30.0610 O.2     1  LIG1       -0.2710
     15  N          6.5750   29.5490   31.7280 N.am    1  LIG1       -0.3590
     16  C          5.2030   29.4210   32.2160 C.3     1  LIG1        0.1520
     17  C          7.6110   29.2490   32.7070 C.3     1  LIG1        0.1520
     18  C          8.7830   24.2510   30.6120 C.2     1  LIG1        0.2980
     19  O          8.8970   23.8130   31.7470 O.2     1  LIG1       -0.2590
     20  C          9.6880   25.2830   30.0460 C.ar    1  LIG1        0.0400
     21  C         10.4970   24.9780   28.9520 C.ar    1  LIG1        0.0200
     22  C         11.3470   25.9480   28.4200 C.ar    1  LIG1        0.0330
     23  C         11.3880   27.2230   28.9820 C.ar    1  LIG1        0.0750
     24  C         10.5790   27.5300   30.0760 C.ar    1  LIG1        0.0330
     25  C          9.7290   26.5600   30.6090 C.ar    1  LIG1        0.0200
     26  N         12.2400   28.1960   28.4480 N.pl3   1  LIG1       -0.0660
     27  C         13.4600   28.2970   28.9180 C.cat   1  LIG1        0.6920
     28  N         14.0370   27.5360   29.9120 N.pl3   1  LIG1       -0.2330
     29  N         14.3290   29.2390   28.4210 N.pl3   1  LIG1       -0.2330
     30  H         13.5180   26.8250   30.3520 H       1  LIG1        0.1740
     31  H         14.9680   27.7060   30.1840 H       1  LIG1        0.1740
     32  H         14.0380   29.8470   27.7040 H       1  LIG1        0.1740
     33  H         15.2430   29.3050   28.7820 H       1  LIG1        0.1740
@<TRIPOS>BOND
     1    10     9    2
     2     9    11    1
     3     9     8    1
     4     4     3   ar
     5     4     5   ar
     6    32    29    1
     7     3     2   ar
     8    11    12    1
     9     8     5    1
    10    22    21   ar
    11    22    23   ar
    12    29    33    1
    13    29    27    1
    14    26    27    2
    15    26    23    1
    16     5     6   ar
    17    27    28    1
    18    21    20   ar
    19    23    24   ar
    20     2     1    1
    21     2     7   ar
    22    12    13    1
    23     1    18    1
    24    28    31    1
    25    28    30    1
    26     6     7   ar
    27    20    25   ar
    28    20    18    1
    29    14    13    2
    30    24    25   ar
    31    13    15   am
    32    18    19    2
    33    15    16    1
    34    15    17    1
@<TRIPOS>MOLECULE
./../dock_file/temp/27b69fd683714517436c20faf3ca207e/Camostat_Ligand_CID_2536:hmTMPRSS7:20230418090535/Camostat_Ligand_CID_2536:hmTMPRSS7_out_4.pdbqt
 33 34 0 0 0
SMALL
GASTEIGER

@<TRIPOS>ATOM
      1  O          9.2990   25.6660   30.3160 O.3     1  LIG1       -0.2750
      2  C         10.5290   25.2550   29.9020 C.ar    1  LIG1        0.0790
      3  C         10.8280   25.2090   28.5400 C.ar    1  LIG1        0.0380
      4  C         12.0880   24.7880   28.1180 C.ar    1  LIG1        0.0100
      5  C         13.0500   24.4120   29.0560 C.ar    1  LIG1       -0.0490
      6  C         12.7500   24.4580   30.4180 C.ar    1  LIG1        0.0100
      7  C         11.4890   24.8800   30.8410 C.ar    1  LIG1        0.0380
      8  C         14.4120   23.9570   28.5990 C.3     1  LIG1        0.1490
      9  C         15.2620   25.0860   28.0660 C.2     1  LIG1        0.2630
     10  O         15.0710   26.2760   28.2730 O.2     1  LIG1       -0.2650
     11  O         16.2890   24.5700   27.3110 O.3     1  LIG1       -0.3120
     12  C         16.1780   24.7330   25.9130 C.3     1  LIG1        0.2810
     13  C         17.2440   25.6930   25.4260 C.2     1  LIG1        0.2430
     14  O         17.0750   26.9030   25.5990 O.2     1  LIG1       -0.2710
     15  N         18.3700   25.1450   24.8110 N.am    1  LIG1       -0.3590
     16  C         18.6120   23.7190   24.6020 C.3     1  LIG1        0.1520
     17  C         19.4260   26.0290   24.3340 C.3     1  LIG1        0.1520
     18  C          8.3220   24.6680   30.2940 C.2     1  LIG1        0.2980
     19  O          8.3500   23.6290   30.9350 O.2     1  LIG1       -0.2590
     20  C          7.2190   25.0190   29.3620 C.ar    1  LIG1        0.0400
     21  C          7.2210   24.5180   28.0600 C.ar    1  LIG1        0.0200
     22  C          6.1850   24.8470   27.1860 C.ar    1  LIG1        0.0330
     23  C          5.1490   25.6770   27.6120 C.ar    1  LIG1        0.0750
     24  C          5.1470   26.1780   28.9140 C.ar    1  LIG1        0.0330
     25  C          6.1820   25.8490   29.7890 C.ar    1  LIG1        0.0200
     26  N          4.1100   26.0060   26.7340 N.pl3   1  LIG1       -0.0660
     27  C          4.0930   27.2010   26.1940 C.cat   1  LIG1        0.6920
     28  N          5.0030   28.2180   26.3860 N.pl3   1  LIG1       -0.2330
     29  N          3.0900   27.5640   25.3260 N.pl3   1  LIG1       -0.2330
     30  H          5.7710   28.0840   26.9860 H       1  LIG1        0.1740
     31  H          4.8840   29.0780   25.9220 H       1  LIG1        0.1740
     32  H          2.3750   26.9250   25.1040 H       1  LIG1        0.1740
     33  H          3.0880   28.4640   24.9260 H       1  LIG1        0.1740
@<TRIPOS>BOND
     1    17    15    1
     2    16    15    1
     3    15    13   am
     4    33    29    1
     5    32    29    1
     6    29    27    1
     7    13    14    2
     8    13    12    1
     9    12    11    1
    10    31    28    1
    11    27    28    1
    12    27    26    2
    13    28    30    1
    14    26    23    1
    15    22    23   ar
    16    22    21   ar
    17    11     9    1
    18    23    24   ar
    19    21    20   ar
    20     9    10    2
    21     9     8    1
    22     4     3   ar
    23     4     5   ar
    24     3     2   ar
    25     8     5    1
    26    24    25   ar
    27     5     6   ar
    28    20    25   ar
    29    20    18    1
    30     2     1    1
    31     2     7   ar
    32    18     1    1
    33    18    19    2
    34     6     7   ar
@<TRIPOS>MOLECULE
./../dock_file/temp/27b69fd683714517436c20faf3ca207e/Camostat_Ligand_CID_2536:hmTMPRSS7:20230418090535/Camostat_Ligand_CID_2536:hmTMPRSS7_out_4.pdbqt
 33 34 0 0 0
SMALL
GASTEIGER

@<TRIPOS>ATOM
      1  O         15.7010   22.9690   27.2740 O.3     1  LIG1       -0.2750
      2  C         14.6070   23.5580   27.8290 C.ar    1  LIG1        0.0790
      3  C         13.6250   24.1180   27.0110 C.ar    1  LIG1        0.0380
      4  C         12.5050   24.7220   27.5800 C.ar    1  LIG1        0.0100
      5  C         12.3640   24.7650   28.9670 C.ar    1  LIG1       -0.0490
      6  C         13.3450   24.2050   29.7850 C.ar    1  LIG1        0.0100
      7  C         14.4670   23.6010   29.2160 C.ar    1  LIG1        0.0380
      8  C         11.1530   25.4170   29.5820 C.3     1  LIG1        0.1490
      9  C         10.9680   26.8500   29.1420 C.2     1  LIG1        0.2630
     10  O         11.7060   27.7810   29.4320 O.2     1  LIG1       -0.2650
     11  O          9.8410   26.9500   28.3610 O.3     1  LIG1       -0.3120
     12  C          8.8110   26.0220   28.6310 C.3     1  LIG1        0.2810
     13  C          7.4660   26.7090   28.5240 C.2     1  LIG1        0.2430
     14  O          7.3980   27.9200   28.7520 O.2     1  LIG1       -0.2710
     15  N          6.3710   25.9240   28.1590 N.am    1  LIG1       -0.3590
     16  C          6.4140   24.4930   27.8660 C.3     1  LIG1        0.1520
     17  C          5.0570   26.5420   28.0340 C.3     1  LIG1        0.1520
     18  C         15.5070   21.6390   26.8930 C.2     1  LIG1        0.2980
     19  O         14.4300   21.0660   26.8320 O.2     1  LIG1       -0.2590
     20  C         16.7980   20.9790   26.5760 C.ar    1  LIG1        0.0400
     21  C         16.8140   19.6650   26.1100 C.ar    1  LIG1        0.0200
     22  C         18.0270   19.0440   25.8120 C.ar    1  LIG1        0.0330
     23  C         19.2250   19.7380   25.9810 C.ar    1  LIG1        0.0750
     24  C         19.2100   21.0530   26.4470 C.ar    1  LIG1        0.0330
     25  C         17.9970   21.6730   26.7450 C.ar    1  LIG1        0.0200
     26  N         20.4420   19.1160   25.6830 N.pl3   1  LIG1       -0.0660
     27  C         20.9930   18.3360   26.5820 C.cat   1  LIG1        0.6920
     28  N         20.5080   18.0370   27.8370 N.pl3   1  LIG1       -0.2330
     29  N         22.1880   17.7060   26.3280 N.pl3   1  LIG1       -0.2330
     30  H         19.6570   18.4260   28.1410 H       1  LIG1        0.1740
     31  H         21.0140   17.4340   28.4290 H       1  LIG1        0.1740
     32  H         22.6400   17.8370   25.4630 H       1  LIG1        0.1740
     33  H         22.5910   17.1220   27.0110 H       1  LIG1        0.1740
@<TRIPOS>BOND
     1    32    29    1
     2    26    23    1
     3    26    27    2
     4    22    23   ar
     5    22    21   ar
     6    23    24   ar
     7    21    20   ar
     8    29    27    1
     9    29    33    1
    10    24    25   ar
    11    20    25   ar
    12    20    18    1
    13    27    28    1
    14    19    18    2
    15    18     1    1
    16     3     4   ar
    17     3     2   ar
    18     1     2    1
    19     4     5   ar
    20     2     7   ar
    21    28    30    1
    22    28    31    1
    23    16    15    1
    24    17    15    1
    25    15    13   am
    26    11    12    1
    27    11     9    1
    28    13    12    1
    29    13    14    2
    30     5     8    1
    31     5     6   ar
    32     9    10    2
    33     9     8    1
    34     7     6   ar
@<TRIPOS>MOLECULE
./../dock_file/temp/27b69fd683714517436c20faf3ca207e/Camostat_Ligand_CID_2536:hmTMPRSS7:20230418090535/Camostat_Ligand_CID_2536:hmTMPRSS7_out_4.pdbqt
 33 34 0 0 0
SMALL
GASTEIGER

@<TRIPOS>ATOM
      1  O         10.3020   25.1700   30.3200 O.3     1  LIG1       -0.2750
      2  C          8.9650   25.4240   30.3000 C.ar    1  LIG1        0.0790
      3  C          8.4440   26.4850   31.0410 C.ar    1  LIG1        0.0380
      4  C          7.0750   26.7440   31.0200 C.ar    1  LIG1        0.0100
      5  C          6.2240   25.9440   30.2570 C.ar    1  LIG1       -0.0490
      6  C          6.7450   24.8830   29.5150 C.ar    1  LIG1        0.0100
      7  C          8.1150   24.6230   29.5370 C.ar    1  LIG1        0.0380
      8  C          4.7440   26.2240   30.2340 C.3     1  LIG1        0.1490
      9  C          4.4240   27.7010   30.2170 C.2     1  LIG1        0.2630
     10  O          4.5930   28.4730   31.1510 O.2     1  LIG1       -0.2650
     11  O          3.9140   28.0460   28.9880 O.3     1  LIG1       -0.3120
     12  C          4.7790   27.8780   27.8840 C.3     1  LIG1        0.2810
     13  C          3.9840   27.4140   26.6810 C.2     1  LIG1        0.2430
     14  O          3.7100   26.2150   26.5780 O.2     1  LIG1       -0.2710
     15  N          3.5960   28.3820   25.7550 N.am    1  LIG1       -0.3590
     16  C          3.8880   29.8110   25.8500 C.3     1  LIG1        0.1520
     17  C          2.8220   27.9850   24.5850 C.3     1  LIG1        0.1520
     18  C         11.0290   25.8390   29.3330 C.2     1  LIG1        0.2980
     19  O         10.7440   26.9250   28.8510 O.2     1  LIG1       -0.2590
     20  C         12.2140   25.0490   28.9120 C.ar    1  LIG1        0.0400
     21  C         13.0730   24.5160   29.8720 C.ar    1  LIG1        0.0200
     22  C         14.1850   23.7730   29.4770 C.ar    1  LIG1        0.0330
     23  C         14.4390   23.5640   28.1210 C.ar    1  LIG1        0.0750
     24  C         13.5800   24.0980   27.1600 C.ar    1  LIG1        0.0330
     25  C         12.4670   24.8400   27.5560 C.ar    1  LIG1        0.0200
     26  N         15.5550   22.8190   27.7250 N.pl3   1  LIG1       -0.0660
     27  C         15.3750   21.7560   26.9790 C.cat   1  LIG1        0.6920
     28  N         14.1780   21.2550   26.5150 N.pl3   1  LIG1       -0.2330
     29  N         16.4450   20.9970   26.5680 N.pl3   1  LIG1       -0.2330
     30  H         13.3340   21.7080   26.7410 H       1  LIG1        0.1740
     31  H         14.1670   20.4420   25.9590 H       1  LIG1        0.1740
     32  H         17.3580   21.2500   26.8320 H       1  LIG1        0.1740
     33  H         16.2970   20.2000   26.0080 H       1  LIG1        0.1740
@<TRIPOS>BOND
     1    17    15    1
     2    15    16    1
     3    15    13   am
     4    31    28    1
     5    33    29    1
     6    28    30    1
     7    28    27    1
     8    29    32    1
     9    29    27    1
    10    14    13    2
    11    13    12    1
    12    27    26    2
    13    24    25   ar
    14    24    23   ar
    15    25    20   ar
    16    26    23    1
    17    12    11    1
    18    23    22   ar
    19    19    18    2
    20    20    18    1
    21    20    21   ar
    22    11     9    1
    23    18     1    1
    24    22    21   ar
    25     6     7   ar
    26     6     5   ar
    27     7     2   ar
    28     9     8    1
    29     9    10    2
    30     8     5    1
    31     5     4   ar
    32     2     1    1
    33     2     3   ar
    34     4     3   ar
@<TRIPOS>MOLECULE
./../dock_file/temp/27b69fd683714517436c20faf3ca207e/Camostat_Ligand_CID_2536:hmTMPRSS7:20230418090535/Camostat_Ligand_CID_2536:hmTMPRSS7_out_4.pdbqt
 33 34 0 0 0
SMALL
GASTEIGER

@<TRIPOS>ATOM
      1  O         22.2830   16.7860   24.2150 O.3     1  LIG1       -0.2750
      2  C         22.6180   15.8870   23.2500 C.ar    1  LIG1        0.0790
      3  C         23.8620   15.2570   23.2840 C.ar    1  LIG1        0.0380
      4  C         24.2040   14.3350   22.2950 C.ar    1  LIG1        0.0100
      5  C         23.3020   14.0430   21.2720 C.ar    1  LIG1       -0.0490
      6  C         22.0580   14.6730   21.2380 C.ar    1  LIG1        0.0100
      7  C         21.7160   15.5950   22.2270 C.ar    1  LIG1        0.0380
      8  C         23.6720   13.0470   20.2030 C.3     1  LIG1        0.1490
      9  C         23.8510   13.6810   18.8440 C.2     1  LIG1        0.2630
     10  O         24.6610   14.5560   18.5710 O.2     1  LIG1       -0.2650
     11  O         22.9620   13.1230   17.9560 O.3     1  LIG1       -0.3120
     12  C         22.1300   14.0230   17.2560 C.3     1  LIG1        0.2810
     13  C         20.7060   13.5080   17.2600 C.2     1  LIG1        0.2430
     14  O         20.2510   13.0280   18.3020 O.2     1  LIG1       -0.2710
     15  N         19.9800   13.6160   16.0730 N.am    1  LIG1       -0.3590
     16  C         20.4780   14.1910   14.8250 C.3     1  LIG1        0.1520
     17  C         18.6020   13.1420   16.0300 C.3     1  LIG1        0.1520
     18  C         22.1540   18.1000   23.7570 C.2     1  LIG1        0.2980
     19  O         22.9560   18.6890   23.0480 O.2     1  LIG1       -0.2590
     20  C         20.9020   18.7210   24.2580 C.ar    1  LIG1        0.0400
     21  C         20.4660   19.9360   23.7300 C.ar    1  LIG1        0.0200
     22  C         19.2890   20.5180   24.2010 C.ar    1  LIG1        0.0330
     23  C         18.5480   19.8870   25.1990 C.ar    1  LIG1        0.0750
     24  C         18.9830   18.6710   25.7270 C.ar    1  LIG1        0.0330
     25  C         20.1600   18.0880   25.2570 C.ar    1  LIG1        0.0200
     26  N         17.3680   20.4710   25.6700 N.pl3   1  LIG1       -0.0660
     27  C         17.4140   21.2060   26.7560 C.cat   1  LIG1        0.6920
     28  N         18.5220   21.4890   27.5260 N.pl3   1  LIG1       -0.2330
     29  N         16.2770   21.7980   27.2520 N.pl3   1  LIG1       -0.2330
     30  H         19.4010   21.1230   27.2770 H       1  LIG1        0.1740
     31  H         18.4330   22.0560   28.3260 H       1  LIG1        0.1740
     32  H         15.4160   21.6740   26.7920 H       1  LIG1        0.1740
     33  H         16.3250   22.3480   28.0680 H       1  LIG1        0.1740
@<TRIPOS>BOND
     1    16    15    1
     2    17    15    1
     3    15    13   am
     4    12    13    1
     5    12    11    1
     6    13    14    2
     7    11     9    1
     8    10     9    2
     9     9     8    1
    10     8     5    1
    11     6     5   ar
    12     6     7   ar
    13     5     4   ar
    14     7     2   ar
    15     4     3   ar
    16    19    18    2
    17     2     3   ar
    18     2     1    1
    19    21    22   ar
    20    21    20   ar
    21    18     1    1
    22    18    20    1
    23    22    23   ar
    24    20    25   ar
    25    23    26    1
    26    23    24   ar
    27    25    24   ar
    28    26    27    2
    29    27    29    1
    30    27    28    1
    31    32    29    1
    32    29    33    1
    33    30    28    1
    34    28    31    1
