@<TRIPOS>MOLECULE
./../dock_file/temp/27b69fd683714517436c20faf3ca207e/Camostat_Ligand_CID_2536:hmTMPRSS7:20230418090535/Camostat_Ligand_CID_2536:hmTMPRSS7_out_1.pdbqt
 33 34 0 0 0
SMALL
GASTEIGER

@<TRIPOS>ATOM
      1  O         -5.3170   31.0510   20.9140 O.3     1  LIG1       -0.2750
      2  C         -4.9040   31.6520   19.7650 C.ar    1  LIG1        0.0790
      3  C         -5.0370   33.0320   19.6120 C.ar    1  LIG1        0.0380
      4  C         -4.6140   33.6470   18.4350 C.ar    1  LIG1        0.0100
      5  C         -4.0560   32.8830   17.4090 C.ar    1  LIG1       -0.0490
      6  C         -3.9230   31.5030   17.5630 C.ar    1  LIG1        0.0100
      7  C         -4.3460   30.8870   18.7410 C.ar    1  LIG1        0.0380
      8  C         -3.5990   33.5480   16.1370 C.3     1  LIG1        0.1490
      9  C         -2.1420   33.2920   15.8290 C.2     1  LIG1        0.2630
     10  O         -1.7160   32.7400   14.8250 O.2     1  LIG1       -0.2650
     11  O         -1.3640   33.7770   16.8540 O.3     1  LIG1       -0.3120
     12  C         -0.0180   34.0590   16.5370 C.3     1  LIG1        0.2810
     13  C          0.8560   33.7980   17.7460 C.2     1  LIG1        0.2430
     14  O          1.2020   32.6380   17.9890 O.2     1  LIG1       -0.2710
     15  N          1.2300   34.8980   18.5180 N.am    1  LIG1       -0.3590
     16  C          0.8540   36.2850   18.2540 C.3     1  LIG1        0.1520
     17  C          2.0780   34.6990   19.6860 C.3     1  LIG1        0.1520
     18  C         -4.3500   30.2460   21.5210 C.2     1  LIG1        0.2980
     19  O         -3.2040   30.5810   21.7820 O.2     1  LIG1       -0.2590
     20  C         -4.8850   28.8910   21.8080 C.ar    1  LIG1        0.0400
     21  C         -4.7060   27.8610   20.8850 C.ar    1  LIG1        0.0200
     22  C         -5.2080   26.5880   21.1540 C.ar    1  LIG1        0.0330
     23  C         -5.8900   26.3440   22.3460 C.ar    1  LIG1        0.0750
     24  C         -6.0700   27.3740   23.2700 C.ar    1  LIG1        0.0330
     25  C         -5.5670   28.6480   23.0000 C.ar    1  LIG1        0.0200
     26  N         -6.3940   25.0670   22.6160 N.pl3   1  LIG1       -0.0660
     27  C         -5.6000   24.0320   22.4830 C.cat   1  LIG1        0.6920
     28  N         -4.2770   24.0380   22.0950 N.pl3   1  LIG1       -0.2330
     29  N         -6.0560   22.7600   22.7390 N.pl3   1  LIG1       -0.2330
     30  H         -3.8310   24.8890   21.8820 H       1  LIG1        0.1740
     31  H         -3.7800   23.1910   22.0300 H       1  LIG1        0.1740
     32  H         -6.9860   22.6190   23.0250 H       1  LIG1        0.1740
     33  H         -5.4500   21.9910   22.6360 H       1  LIG1        0.1740
@<TRIPOS>BOND
     1    10     9    2
     2     9     8    1
     3     9    11    1
     4     8     5    1
     5    12    11    1
     6    12    13    1
     7     5     6   ar
     8     5     4   ar
     9     6     7   ar
    10    13    14    2
    11    13    15   am
    12    16    15    1
    13     4     3   ar
    14    15    17    1
    15     7     2   ar
    16     3     2   ar
    17     2     1    1
    18    21    22   ar
    19    21    20   ar
    20     1    18    1
    21    22    23   ar
    22    18    19    2
    23    18    20    1
    24    20    25   ar
    25    30    28    1
    26    31    28    1
    27    28    27    1
    28    23    26    1
    29    23    24   ar
    30    27    26    2
    31    27    29    1
    32    33    29    1
    33    29    32    1
    34    25    24   ar
@<TRIPOS>MOLECULE
./../dock_file/temp/27b69fd683714517436c20faf3ca207e/Camostat_Ligand_CID_2536:hmTMPRSS7:20230418090535/Camostat_Ligand_CID_2536:hmTMPRSS7_out_1.pdbqt
 33 34 0 0 0
SMALL
GASTEIGER

@<TRIPOS>ATOM
      1  O         -6.1430   30.2320   19.9770 O.3     1  LIG1       -0.2750
      2  C         -5.9730   29.0220   20.5760 C.ar    1  LIG1        0.0790
      3  C         -4.8100   28.2870   20.3450 C.ar    1  LIG1        0.0380
      4  C         -4.6360   27.0470   20.9590 C.ar    1  LIG1        0.0100
      5  C         -5.6230   26.5420   21.8040 C.ar    1  LIG1       -0.0490
      6  C         -6.7860   27.2770   22.0350 C.ar    1  LIG1        0.0100
      7  C         -6.9610   28.5180   21.4210 C.ar    1  LIG1        0.0380
      8  C         -5.4350   25.2020   22.4670 C.3     1  LIG1        0.1490
      9  C         -6.3910   24.9730   23.6150 C.2     1  LIG1        0.2630
     10  O         -7.4400   24.3470   23.5500 O.2     1  LIG1       -0.2650
     11  O         -5.9000   25.5770   24.7480 O.3     1  LIG1       -0.3120
     12  C         -6.7710   25.6210   25.8590 C.3     1  LIG1        0.2810
     13  C         -7.3530   27.0120   25.9950 C.2     1  LIG1        0.2430
     14  O         -8.3040   27.3300   25.2760 O.2     1  LIG1       -0.2710
     15  N         -6.7790   27.8590   26.9440 N.am    1  LIG1       -0.3590
     16  C         -5.6640   27.5130   27.8240 C.3     1  LIG1        0.1520
     17  C         -7.3110   29.2040   27.1180 C.3     1  LIG1        0.1520
     18  C         -5.2010   31.1950   20.3470 C.2     1  LIG1        0.2980
     19  O         -4.8690   31.4640   21.4920 O.2     1  LIG1       -0.2590
     20  C         -4.6420   31.8830   19.1560 C.ar    1  LIG1        0.0400
     21  C         -4.0330   31.1420   18.1440 C.ar    1  LIG1        0.0200
     22  C         -3.5090   31.7890   17.0240 C.ar    1  LIG1        0.0330
     23  C         -3.5940   33.1770   16.9170 C.ar    1  LIG1        0.0750
     24  C         -4.2040   33.9190   17.9300 C.ar    1  LIG1        0.0330
     25  C         -4.7270   33.2720   19.0490 C.ar    1  LIG1        0.0200
     26  N         -3.0690   33.8260   15.7950 N.pl3   1  LIG1       -0.0660
     27  C         -1.7670   33.9300   15.6750 C.cat   1  LIG1        0.6920
     28  N         -0.8080   33.4640   16.5480 N.pl3   1  LIG1       -0.2330
     29  N         -1.2100   34.5600   14.5860 N.pl3   1  LIG1       -0.2330
     30  H         -1.0770   32.9940   17.3690 H       1  LIG1        0.1740
     31  H          0.1470   33.6030   16.3500 H       1  LIG1        0.1740
     32  H         -1.7900   34.9380   13.8870 H       1  LIG1        0.1740
     33  H         -0.2310   34.6320   14.5070 H       1  LIG1        0.1740
@<TRIPOS>BOND
     1    32    29    1
     2    33    29    1
     3    29    27    1
     4    27    26    2
     5    27    28    1
     6    26    23    1
     7    31    28    1
     8    28    30    1
     9    23    22   ar
    10    23    24   ar
    11    22    21   ar
    12    24    25   ar
    13    21    20   ar
    14    25    20   ar
    15    20    18    1
    16     1    18    1
    17     1     2    1
    18     3     2   ar
    19     3     4   ar
    20    18    19    2
    21     2     7   ar
    22     4     5   ar
    23     7     6   ar
    24     5     6   ar
    25     5     8    1
    26     8     9    1
    27    10     9    2
    28     9    11    1
    29    11    12    1
    30    14    13    2
    31    12    13    1
    32    13    15   am
    33    15    17    1
    34    15    16    1
@<TRIPOS>MOLECULE
./../dock_file/temp/27b69fd683714517436c20faf3ca207e/Camostat_Ligand_CID_2536:hmTMPRSS7:20230418090535/Camostat_Ligand_CID_2536:hmTMPRSS7_out_1.pdbqt
 33 34 0 0 0
SMALL
GASTEIGER

@<TRIPOS>ATOM
      1  O         -4.9550   28.6060   21.8630 O.3     1  LIG1       -0.2750
      2  C         -4.4440   29.6450   21.1480 C.ar    1  LIG1        0.0790
      3  C         -3.6120   30.5780   21.7680 C.ar    1  LIG1        0.0380
      4  C         -3.0890   31.6410   21.0340 C.ar    1  LIG1        0.0100
      5  C         -3.3950   31.7730   19.6800 C.ar    1  LIG1       -0.0490
      6  C         -4.2270   30.8400   19.0600 C.ar    1  LIG1        0.0100
      7  C         -4.7510   29.7760   19.7940 C.ar    1  LIG1        0.0380
      8  C         -2.8290   32.9220   18.8870 C.3     1  LIG1        0.1490
      9  C         -1.6640   32.5190   18.0140 C.2     1  LIG1        0.2630
     10  O         -0.5410   32.2450   18.4140 O.2     1  LIG1       -0.2650
     11  O         -2.0590   32.5060   16.6970 O.3     1  LIG1       -0.3120
     12  C         -1.4700   33.4780   15.8590 C.3     1  LIG1        0.2810
     13  C         -2.3250   34.7270   15.8480 C.2     1  LIG1        0.2430
     14  O         -3.4130   34.6970   15.2670 O.2     1  LIG1       -0.2710
     15  N         -1.8300   35.8510   16.5130 N.am    1  LIG1       -0.3590
     16  C         -0.5560   35.9210   17.2240 C.3     1  LIG1        0.1520
     17  C         -2.6210   37.0740   16.5370 C.3     1  LIG1        0.1520
     18  C         -4.4160   27.3600   21.5330 C.2     1  LIG1        0.2980
     19  O         -3.4370   27.1720   20.8270 O.2     1  LIG1       -0.2590
     20  C         -5.2020   26.2580   22.1440 C.ar    1  LIG1        0.0400
     21  C         -6.3010   26.5500   22.9510 C.ar    1  LIG1        0.0200
     22  C         -7.0400   25.5140   23.5240 C.ar    1  LIG1        0.0330
     23  C         -6.6790   24.1880   23.2900 C.ar    1  LIG1        0.0750
     24  C         -5.5790   23.8950   22.4830 C.ar    1  LIG1        0.0330
     25  C         -4.8410   24.9310   21.9100 C.ar    1  LIG1        0.0200
     26  N         -7.4200   23.1490   23.8650 N.pl3   1  LIG1       -0.0660
     27  C         -7.6550   22.0710   23.1570 C.cat   1  LIG1        0.6920
     28  N         -7.2500   21.8170   21.8640 N.pl3   1  LIG1       -0.2330
     29  N         -8.3790   21.0280   23.6850 N.pl3   1  LIG1       -0.2330
     30  H         -6.7230   22.4870   21.3720 H       1  LIG1        0.1740
     31  H         -7.4890   20.9640   21.4320 H       1  LIG1        0.1740
     32  H         -8.7260   21.0850   24.6040 H       1  LIG1        0.1740
     33  H         -8.5480   20.2230   23.1430 H       1  LIG1        0.1740
@<TRIPOS>BOND
     1    14    13    2
     2    13    12    1
     3    13    15   am
     4    12    11    1
     5    15    17    1
     6    15    16    1
     7    11     9    1
     8     9    10    2
     9     9     8    1
    10     8     5    1
    11     6     5   ar
    12     6     7   ar
    13     5     4   ar
    14     7     2   ar
    15    19    18    2
    16     4     3   ar
    17     2     3   ar
    18     2     1    1
    19    30    28    1
    20    31    28    1
    21    18     1    1
    22    18    20    1
    23    28    27    1
    24    25    20   ar
    25    25    24   ar
    26    20    21   ar
    27    24    23   ar
    28    21    22   ar
    29    33    29    1
    30    27    29    1
    31    27    26    2
    32    23    22   ar
    33    23    26    1
    34    29    32    1
@<TRIPOS>MOLECULE
./../dock_file/temp/27b69fd683714517436c20faf3ca207e/Camostat_Ligand_CID_2536:hmTMPRSS7:20230418090535/Camostat_Ligand_CID_2536:hmTMPRSS7_out_1.pdbqt
 33 34 0 0 0
SMALL
GASTEIGER

@<TRIPOS>ATOM
      1  O         -3.1000   30.1180   21.1730 O.3     1  LIG1       -0.2750
      2  C         -3.1550   30.7010   19.9440 C.ar    1  LIG1        0.0790
      3  C         -2.0880   31.4780   19.4910 C.ar    1  LIG1        0.0380
      4  C         -2.1450   32.0750   18.2330 C.ar    1  LIG1        0.0100
      5  C         -3.2690   31.8950   17.4250 C.ar    1  LIG1       -0.0490
      6  C         -4.3350   31.1180   17.8780 C.ar    1  LIG1        0.0100
      7  C         -4.2780   30.5200   19.1370 C.ar    1  LIG1        0.0380
      8  C         -3.3310   32.5390   16.0650 C.3     1  LIG1        0.1490
      9  C         -3.9150   33.9320   16.0990 C.2     1  LIG1        0.2630
     10  O         -4.9610   34.2480   16.6490 O.2     1  LIG1       -0.2650
     11  O         -3.0900   34.7940   15.4160 O.3     1  LIG1       -0.3120
     12  C         -2.2560   35.6160   16.2050 C.3     1  LIG1        0.2810
     13  C         -0.8860   34.9820   16.3300 C.2     1  LIG1        0.2430
     14  O         -0.4060   34.4090   15.3480 O.2     1  LIG1       -0.2710
     15  N         -0.2370   35.0920   17.5600 N.am    1  LIG1       -0.3590
     16  C         -0.7660   35.7730   18.7390 C.3     1  LIG1        0.1520
     17  C          1.0870   34.5050   17.7250 C.3     1  LIG1        0.1520
     18  C         -4.2840   30.2130   21.9080 C.2     1  LIG1        0.2980
     19  O         -4.7800   31.2470   22.3280 O.2     1  LIG1       -0.2590
     20  C         -4.8790   28.8720   22.1400 C.ar    1  LIG1        0.0400
     21  C         -5.4650   28.5730   23.3690 C.ar    1  LIG1        0.0200
     22  C         -6.0240   27.3140   23.5870 C.ar    1  LIG1        0.0330
     23  C         -5.9970   26.3540   22.5760 C.ar    1  LIG1        0.0750
     24  C         -5.4100   26.6530   21.3460 C.ar    1  LIG1        0.0330
     25  C         -4.8510   27.9120   21.1280 C.ar    1  LIG1        0.0200
     26  N         -6.5570   25.0910   22.7950 N.pl3   1  LIG1       -0.0660
     27  C         -5.8140   24.0270   22.6100 C.cat   1  LIG1        0.6920
     28  N         -4.4950   23.9890   22.2110 N.pl3   1  LIG1       -0.2330
     29  N         -6.3270   22.7670   22.8140 N.pl3   1  LIG1       -0.2330
     30  H         -4.0110   24.8260   22.0310 H       1  LIG1        0.1740
     31  H         -4.0380   23.1220   22.1050 H       1  LIG1        0.1740
     32  H         -7.2610   22.6570   23.1030 H       1  LIG1        0.1740
     33  H         -5.7590   21.9760   22.6720 H       1  LIG1        0.1740
@<TRIPOS>BOND
     1    14    13    2
     2    11     9    1
     3    11    12    1
     4     8     9    1
     5     8     5    1
     6     9    10    2
     7    12    13    1
     8    13    15   am
     9     5     6   ar
    10     5     4   ar
    11    15    17    1
    12    15    16    1
    13     6     7   ar
    14     4     3   ar
    15     7     2   ar
    16     3     2   ar
    17     2     1    1
    18    25    24   ar
    19    25    20   ar
    20     1    18    1
    21    24    23   ar
    22    18    20    1
    23    18    19    2
    24    30    28    1
    25    31    28    1
    26    20    21   ar
    27    28    27    1
    28    23    26    1
    29    23    22   ar
    30    27    26    2
    31    27    29    1
    32    33    29    1
    33    29    32    1
    34    21    22   ar
@<TRIPOS>MOLECULE
./../dock_file/temp/27b69fd683714517436c20faf3ca207e/Camostat_Ligand_CID_2536:hmTMPRSS7:20230418090535/Camostat_Ligand_CID_2536:hmTMPRSS7_out_1.pdbqt
 33 34 0 0 0
SMALL
GASTEIGER

@<TRIPOS>ATOM
      1  O         -5.3270   30.2370   20.3500 O.3     1  LIG1       -0.2750
      2  C         -5.8560   29.5470   21.3960 C.ar    1  LIG1        0.0790
      3  C         -5.7230   30.0370   22.6950 C.ar    1  LIG1        0.0380
      4  C         -6.2650   29.3290   23.7670 C.ar    1  LIG1        0.0100
      5  C         -6.9420   28.1300   23.5400 C.ar    1  LIG1       -0.0490
      6  C         -7.0750   27.6400   22.2410 C.ar    1  LIG1        0.0100
      7  C         -6.5320   28.3480   21.1690 C.ar    1  LIG1        0.0380
      8  C         -7.5280   27.3650   24.6980 C.3     1  LIG1        0.1490
      9  C         -6.4780   26.8330   25.6450 C.2     1  LIG1        0.2630
     10  O         -6.0660   27.4090   26.6430 O.2     1  LIG1       -0.2650
     11  O         -6.0540   25.5990   25.2140 O.3     1  LIG1       -0.3120
     12  C         -7.0290   24.7840   24.5990 C.3     1  LIG1        0.2810
     13  C         -6.4050   24.0290   23.4430 C.2     1  LIG1        0.2430
     14  O         -5.3770   24.4760   22.9280 O.2     1  LIG1       -0.2710
     15  N         -7.0340   22.8530   23.0300 N.am    1  LIG1       -0.3590
     16  C         -8.2420   22.2850   23.6240 C.3     1  LIG1        0.1520
     17  C         -6.4670   22.0880   21.9270 C.3     1  LIG1        0.1520
     18  C         -3.9400   30.1200   20.2260 C.2     1  LIG1        0.2980
     19  O         -3.2440   29.2820   20.7780 O.2     1  LIG1       -0.2590
     20  C         -3.3920   31.1710   19.3320 C.ar    1  LIG1        0.0400
     21  C         -4.2210   31.8010   18.4050 C.ar    1  LIG1        0.0200
     22  C         -3.7060   32.7900   17.5660 C.ar    1  LIG1        0.0330
     23  C         -2.3610   33.1470   17.6530 C.ar    1  LIG1        0.0750
     24  C         -1.5300   32.5170   18.5800 C.ar    1  LIG1        0.0330
     25  C         -2.0450   31.5280   19.4190 C.ar    1  LIG1        0.0200
     26  N         -1.8440   34.1380   16.8120 N.pl3   1  LIG1       -0.0660
     27  C         -1.6010   33.8410   15.5580 C.cat   1  LIG1        0.6920
     28  N         -1.7980   32.6280   14.9340 N.pl3   1  LIG1       -0.2330
     29  N         -1.0930   34.7860   14.6980 N.pl3   1  LIG1       -0.2330
     30  H         -2.1570   31.8660   15.4420 H       1  LIG1        0.1740
     31  H         -1.5760   32.5240   13.9800 H       1  LIG1        0.1740
     32  H         -0.9090   35.6970   15.0210 H       1  LIG1        0.1740
     33  H         -0.9160   34.5510   13.7580 H       1  LIG1        0.1740
@<TRIPOS>BOND
     1    33    29    1
     2    31    28    1
     3    29    32    1
     4    29    27    1
     5    28    30    1
     6    28    27    1
     7    27    26    2
     8    26    23    1
     9    22    23   ar
    10    22    21   ar
    11    23    24   ar
    12    21    20   ar
    13    24    25   ar
    14    20    25   ar
    15    20    18    1
    16    18     1    1
    17    18    19    2
    18     1     2    1
    19     7     2   ar
    20     7     6   ar
    21     2     3   ar
    22    17    15    1
    23     6     5   ar
    24     3     4   ar
    25    14    13    2
    26    15    13   am
    27    15    16    1
    28    13    12    1
    29     5     4   ar
    30     5     8    1
    31    12    11    1
    32     8     9    1
    33    11     9    1
    34     9    10    2
@<TRIPOS>MOLECULE
./../dock_file/temp/27b69fd683714517436c20faf3ca207e/Camostat_Ligand_CID_2536:hmTMPRSS7:20230418090535/Camostat_Ligand_CID_2536:hmTMPRSS7_out_1.pdbqt
 33 34 0 0 0
SMALL
GASTEIGER

@<TRIPOS>ATOM
      1  O         -7.6560   26.5810   25.2800 O.3     1  LIG1       -0.2750
      2  C         -6.8860   26.7470   24.1700 C.ar    1  LIG1        0.0790
      3  C         -7.1240   27.8180   23.3090 C.ar    1  LIG1        0.0380
      4  C         -6.3360   27.9870   22.1710 C.ar    1  LIG1        0.0100
      5  C         -5.3080   27.0850   21.8940 C.ar    1  LIG1       -0.0490
      6  C         -5.0710   26.0140   22.7550 C.ar    1  LIG1        0.0100
      7  C         -5.8590   25.8450   23.8930 C.ar    1  LIG1        0.0380
      8  C         -4.4570   27.2670   20.6650 C.3     1  LIG1        0.1490
      9  C         -4.4870   28.6810   20.1310 C.2     1  LIG1        0.2630
     10  O         -5.2780   29.1080   19.3020 O.2     1  LIG1       -0.2650
     11  O         -3.4870   29.4160   20.7220 O.3     1  LIG1       -0.3120
     12  C         -3.6160   30.8200   20.6450 C.3     1  LIG1        0.2810
     13  C         -2.3660   31.4130   20.0290 C.2     1  LIG1        0.2430
     14  O         -1.3520   31.5160   20.7250 O.2     1  LIG1       -0.2710
     15  N         -2.4330   31.8050   18.6910 N.am    1  LIG1       -0.3590
     16  C         -3.6080   31.6860   17.8320 C.3     1  LIG1        0.1520
     17  C         -1.2530   32.3730   18.0520 C.3     1  LIG1        0.1520
     18  C         -7.8780   27.7550   26.0050 C.2     1  LIG1        0.2980
     19  O         -8.8940   28.4320   25.9710 O.2     1  LIG1       -0.2590
     20  C         -6.6960   28.1030   26.8350 C.ar    1  LIG1        0.0400
     21  C         -6.4020   27.3600   27.9760 C.ar    1  LIG1        0.0200
     22  C         -5.2920   27.6870   28.7550 C.ar    1  LIG1        0.0330
     23  C         -4.4770   28.7590   28.3920 C.ar    1  LIG1        0.0750
     24  C         -4.7710   29.5040   27.2500 C.ar    1  LIG1        0.0330
     25  C         -5.8810   29.1760   26.4710 C.ar    1  LIG1        0.0200
     26  N         -3.3640   29.0870   29.1730 N.pl3   1  LIG1       -0.0660
     27  C         -3.3900   30.1900   29.8830 C.cat   1  LIG1        0.6920
     28  N         -4.4160   31.1070   29.9630 N.pl3   1  LIG1       -0.2330
     29  N         -2.3170   30.5480   30.6640 N.pl3   1  LIG1       -0.2330
     30  H         -5.2430   30.9650   29.4490 H       1  LIG1        0.1740
     31  H         -4.3200   31.9040   30.5330 H       1  LIG1        0.1740
     32  H         -1.5180   29.9750   30.6950 H       1  LIG1        0.1740
     33  H         -2.3490   31.3790   31.1930 H       1  LIG1        0.1740
@<TRIPOS>BOND
     1    16    15    1
     2    17    15    1
     3    15    13   am
     4    10     9    2
     5    13    12    1
     6    13    14    2
     7     9     8    1
     8     9    11    1
     9    12    11    1
    10     8     5    1
    11     5     4   ar
    12     5     6   ar
    13     4     3   ar
    14     6     7   ar
    15     3     2   ar
    16     7     2   ar
    17     2     1    1
    18     1    18    1
    19    19    18    2
    20    18    20    1
    21    25    20   ar
    22    25    24   ar
    23    20    21   ar
    24    24    23   ar
    25    21    22   ar
    26    23    22   ar
    27    23    26    1
    28    26    27    2
    29    30    28    1
    30    27    28    1
    31    27    29    1
    32    28    31    1
    33    29    32    1
    34    29    33    1
@<TRIPOS>MOLECULE
./../dock_file/temp/27b69fd683714517436c20faf3ca207e/Camostat_Ligand_CID_2536:hmTMPRSS7:20230418090535/Camostat_Ligand_CID_2536:hmTMPRSS7_out_1.pdbqt
 33 34 0 0 0
SMALL
GASTEIGER

@<TRIPOS>ATOM
      1  O         -4.2210   28.0520   20.4700 O.3     1  LIG1       -0.2750
      2  C         -4.8030   27.4710   21.5550 C.ar    1  LIG1        0.0790
      3  C         -5.1790   28.2530   22.6480 C.ar    1  LIG1        0.0380
      4  C         -5.7750   27.6580   23.7590 C.ar    1  LIG1        0.0100
      5  C         -5.9960   26.2800   23.7780 C.ar    1  LIG1       -0.0490
      6  C         -5.6200   25.4990   22.6850 C.ar    1  LIG1        0.0100
      7  C         -5.0240   26.0940   21.5740 C.ar    1  LIG1        0.0380
      8  C         -6.6400   25.6370   24.9790 C.3     1  LIG1        0.1490
      9  C         -7.3310   26.6320   25.8810 C.2     1  LIG1        0.2630
     10  O         -8.2580   27.3610   25.5540 O.2     1  LIG1       -0.2650
     11  O         -6.7590   26.5940   27.1300 O.3     1  LIG1       -0.3120
     12  C         -6.8570   27.7750   27.8980 C.3     1  LIG1        0.2810
     13  C         -5.4990   28.1260   28.4680 C.2     1  LIG1        0.2430
     14  O         -5.1060   27.5310   29.4760 O.2     1  LIG1       -0.2710
     15  N         -4.7590   29.1080   27.8070 N.am    1  LIG1       -0.3590
     16  C         -5.1830   29.8220   26.6050 C.3     1  LIG1        0.1520
     17  C         -3.4430   29.4740   28.3130 C.3     1  LIG1        0.1520
     18  C         -4.9740   29.0780   19.8950 C.2     1  LIG1        0.2980
     19  O         -6.1640   29.0220   19.6220 O.2     1  LIG1       -0.2590
     20  C         -4.1350   30.2740   19.6290 C.ar    1  LIG1        0.0400
     21  C         -3.2790   30.7580   20.6180 C.ar    1  LIG1        0.0200
     22  C         -2.4910   31.8820   20.3690 C.ar    1  LIG1        0.0330
     23  C         -2.5590   32.5210   19.1310 C.ar    1  LIG1        0.0750
     24  C         -3.4150   32.0370   18.1420 C.ar    1  LIG1        0.0330
     25  C         -4.2040   30.9140   18.3910 C.ar    1  LIG1        0.0200
     26  N         -1.7680   33.6480   18.8820 N.pl3   1  LIG1       -0.0660
     27  C         -0.5670   33.4810   18.3820 C.cat   1  LIG1        0.6920
     28  N          0.0440   32.2890   18.0570 N.pl3   1  LIG1       -0.2330
     29  N          0.2420   34.5620   18.1210 N.pl3   1  LIG1       -0.2330
     30  H         -0.4310   31.4390   18.1960 H       1  LIG1        0.1740
     31  H          0.9560   32.2890   17.6860 H       1  LIG1        0.1740
     32  H         -0.0790   35.4730   18.3100 H       1  LIG1        0.1740
     33  H          1.1420   34.4240   17.7460 H       1  LIG1        0.1740
@<TRIPOS>BOND
     1    31    28    1
     2    33    29    1
     3    28    30    1
     4    28    27    1
     5    29    32    1
     6    29    27    1
     7    24    25   ar
     8    24    23   ar
     9    27    26    2
    10    25    20   ar
    11    26    23    1
    12    23    22   ar
    13    19    18    2
    14    20    18    1
    15    20    21   ar
    16    18     1    1
    17    22    21   ar
    18     1     2    1
    19     2     7   ar
    20     2     3   ar
    21     7     6   ar
    22     3     4   ar
    23     6     5   ar
    24     4     5   ar
    25     5     8    1
    26     8     9    1
    27    10     9    2
    28     9    11    1
    29    16    15    1
    30    11    12    1
    31    15    17    1
    32    15    13   am
    33    12    13    1
    34    13    14    2
@<TRIPOS>MOLECULE
./../dock_file/temp/27b69fd683714517436c20faf3ca207e/Camostat_Ligand_CID_2536:hmTMPRSS7:20230418090535/Camostat_Ligand_CID_2536:hmTMPRSS7_out_1.pdbqt
 33 34 0 0 0
SMALL
GASTEIGER

@<TRIPOS>ATOM
      1  O          5.9390   36.4850   20.4750 O.3     1  LIG1       -0.2750
      2  C          4.7170   36.0890   20.0270 C.ar    1  LIG1        0.0790
      3  C          4.3020   36.4270   18.7380 C.ar    1  LIG1        0.0380
      4  C          3.0500   36.0210   18.2800 C.ar    1  LIG1        0.0100
      5  C          2.2110   35.2750   19.1080 C.ar    1  LIG1       -0.0490
      6  C          2.6250   34.9370   20.3970 C.ar    1  LIG1        0.0100
      7  C          3.8780   35.3430   20.8560 C.ar    1  LIG1        0.0380
      8  C          0.8580   34.8370   18.6120 C.3     1  LIG1        0.1490
      9  C          0.9230   33.6150   17.7250 C.2     1  LIG1        0.2630
     10  O          1.4460   32.5510   18.0220 O.2     1  LIG1       -0.2650
     11  O          0.3000   33.8830   16.5290 O.3     1  LIG1       -0.3120
     12  C         -0.6890   34.8910   16.5520 C.3     1  LIG1        0.2810
     13  C         -1.9990   34.3310   16.0390 C.2     1  LIG1        0.2430
     14  O         -1.9810   33.5870   15.0550 O.2     1  LIG1       -0.2710
     15  N         -3.1620   34.6870   16.7230 N.am    1  LIG1       -0.3590
     16  C         -3.2210   35.5530   17.8990 C.3     1  LIG1        0.1520
     17  C         -4.4460   34.1660   16.2720 C.3     1  LIG1        0.1520
     18  C          6.9670   35.5720   20.2240 C.2     1  LIG1        0.2980
     19  O          7.6850   35.5630   19.2360 O.2     1  LIG1       -0.2590
     20  C          7.0780   34.5760   21.3200 C.ar    1  LIG1        0.0400
     21  C          6.8890   33.2210   21.0520 C.ar    1  LIG1        0.0200
     22  C          6.9950   32.2850   22.0810 C.ar    1  LIG1        0.0330
     23  C          7.2880   32.7050   23.3780 C.ar    1  LIG1        0.0750
     24  C          7.4770   34.0610   23.6470 C.ar    1  LIG1        0.0330
     25  C          7.3710   34.9960   22.6180 C.ar    1  LIG1        0.0200
     26  N          7.3930   31.7660   24.4100 N.pl3   1  LIG1       -0.0660
     27  C          6.3120   31.4240   25.0690 C.cat   1  LIG1        0.6920
     28  N          5.0300   31.8890   24.8680 N.pl3   1  LIG1       -0.2330
     29  N          6.3730   30.5050   26.0900 N.pl3   1  LIG1       -0.2330
     30  H          4.8520   32.5540   24.1650 H       1  LIG1        0.1740
     31  H          4.2930   31.5570   25.4300 H       1  LIG1        0.1740
     32  H          7.2340   30.0960   26.3330 H       1  LIG1        0.1740
     33  H          5.5540   30.2560   26.5770 H       1  LIG1        0.1740
@<TRIPOS>BOND
     1    14    13    2
     2    13    12    1
     3    13    15   am
     4    17    15    1
     5    11    12    1
     6    11     9    1
     7    15    16    1
     8     9    10    2
     9     9     8    1
    10     4     3   ar
    11     4     5   ar
    12     8     5    1
    13     3     2   ar
    14     5     6   ar
    15    19    18    2
    16     2     1    1
    17     2     7   ar
    18    18     1    1
    19    18    20    1
    20     6     7   ar
    21    21    20   ar
    22    21    22   ar
    23    20    25   ar
    24    22    23   ar
    25    25    24   ar
    26    23    24   ar
    27    23    26    1
    28    30    28    1
    29    26    27    2
    30    28    27    1
    31    28    31    1
    32    27    29    1
    33    29    32    1
    34    29    33    1
@<TRIPOS>MOLECULE
./../dock_file/temp/27b69fd683714517436c20faf3ca207e/Camostat_Ligand_CID_2536:hmTMPRSS7:20230418090535/Camostat_Ligand_CID_2536:hmTMPRSS7_out_1.pdbqt
 33 34 0 0 0
SMALL
GASTEIGER

@<TRIPOS>ATOM
      1  O          9.2500   25.5290   30.6340 O.3     1  LIG1       -0.2750
      2  C         10.4650   25.2030   30.1140 C.ar    1  LIG1        0.0790
      3  C         10.6760   25.2720   28.7360 C.ar    1  LIG1        0.0380
      4  C         11.9200   24.9380   28.2040 C.ar    1  LIG1        0.0100
      5  C         12.9550   24.5360   29.0480 C.ar    1  LIG1       -0.0490
      6  C         12.7450   24.4670   30.4250 C.ar    1  LIG1        0.0100
      7  C         11.5000   24.8010   30.9580 C.ar    1  LIG1        0.0380
      8  C         14.3000   24.1750   28.4720 C.3     1  LIG1        0.1490
      9  C         15.0970   25.3810   28.0360 C.2     1  LIG1        0.2630
     10  O         15.1240   26.4600   28.6120 O.2     1  LIG1       -0.2650
     11  O         15.7920   25.0820   26.8880 O.3     1  LIG1       -0.3120
     12  C         17.1480   25.4770   26.8580 C.3     1  LIG1        0.2810
     13  C         17.3420   26.5480   25.8050 C.2     1  LIG1        0.2430
     14  O         17.1250   27.7250   26.1080 O.2     1  LIG1       -0.2710
     15  N         17.7710   26.1380   24.5420 N.am    1  LIG1       -0.3590
     16  C         18.0530   24.7590   24.1500 C.3     1  LIG1        0.1520
     17  C         17.9810   27.1330   23.4990 C.3     1  LIG1        0.1520
     18  C          8.2940   24.5150   30.5410 C.2     1  LIG1        0.2980
     19  O          8.3210   23.4530   31.1450 O.2     1  LIG1       -0.2590
     20  C          7.2190   24.8790   29.5840 C.ar    1  LIG1        0.0400
     21  C          6.1480   25.6660   30.0050 C.ar    1  LIG1        0.0200
     22  C          5.1380   26.0090   29.1060 C.ar    1  LIG1        0.0330
     23  C          5.1980   25.5620   27.7860 C.ar    1  LIG1        0.0750
     24  C          6.2690   24.7740   27.3640 C.ar    1  LIG1        0.0330
     25  C          7.2790   24.4320   28.2640 C.ar    1  LIG1        0.0200
     26  N          4.1850   25.9060   26.8840 N.pl3   1  LIG1       -0.0660
     27  C          4.1980   27.0990   26.3410 C.cat   1  LIG1        0.6920
     28  N          5.1190   28.1020   26.5510 N.pl3   1  LIG1       -0.2330
     29  N          3.2210   27.4750   25.4490 N.pl3   1  LIG1       -0.2330
     30  H          5.8710   27.9590   27.1700 H       1  LIG1        0.1740
     31  H          5.0240   28.9640   26.0840 H       1  LIG1        0.1740
     32  H          2.5020   26.8470   25.2130 H       1  LIG1        0.1740
     33  H          3.2420   28.3740   25.0480 H       1  LIG1        0.1740
@<TRIPOS>BOND
     1    17    15    1
     2    16    15    1
     3    15    13   am
     4    33    29    1
     5    32    29    1
     6    29    27    1
     7    13    14    2
     8    13    12    1
     9    31    28    1
    10    27    28    1
    11    27    26    2
    12    28    30    1
    13    12    11    1
    14    26    23    1
    15    11     9    1
    16    24    23   ar
    17    24    25   ar
    18    23    22   ar
    19     9     8    1
    20     9    10    2
    21     4     3   ar
    22     4     5   ar
    23    25    20   ar
    24     8     5    1
    25     3     2   ar
    26     5     6   ar
    27    22    21   ar
    28    20    21   ar
    29    20    18    1
    30     2     1    1
    31     2     7   ar
    32     6     7   ar
    33    18     1    1
    34    18    19    2
