@<TRIPOS>MOLECULE
./../dock_file/temp/27b69fd683714517436c20faf3ca207e/Camostat_Ligand_CID_2536:hmTMPRSS7:20230418090535/Camostat_Ligand_CID_2536:hmTMPRSS7_out_5.pdbqt
 33 34 0 0 0
SMALL
GASTEIGER

@<TRIPOS>ATOM
      1  O        -16.0760    4.1490    7.3530 O.3     1  LIG1       -0.2750
      2  C        -16.0930    5.4980    7.5330 C.ar    1  LIG1        0.0790
      3  C        -16.3900    6.3410    6.4610 C.ar    1  LIG1        0.0380
      4  C        -16.4070    7.7230    6.6460 C.ar    1  LIG1        0.0100
      5  C        -16.1300    8.2630    7.9020 C.ar    1  LIG1       -0.0490
      6  C        -15.8330    7.4200    8.9730 C.ar    1  LIG1        0.0100
      7  C        -15.8160    6.0370    8.7890 C.ar    1  LIG1        0.0380
      8  C        -16.1490    9.7560    8.1010 C.3     1  LIG1        0.1490
      9  C        -14.9270   10.2690    8.8260 C.2     1  LIG1        0.2630
     10  O        -13.7670   10.0610    8.4960 O.2     1  LIG1       -0.2650
     11  O        -15.3170   11.0100    9.9170 O.3     1  LIG1       -0.3120
     12  C        -16.3370   10.4520   10.7170 C.3     1  LIG1        0.2810
     13  C        -17.5340   11.3800   10.7370 C.2     1  LIG1        0.2430
     14  O        -17.4080   12.5200   10.2820 O.2     1  LIG1       -0.2710
     15  N        -18.7250   10.8820   11.2670 N.am    1  LIG1       -0.3590
     16  C        -18.9160    9.5350   11.8020 C.3     1  LIG1        0.1520
     17  C        -19.9060   11.7350   11.3000 C.3     1  LIG1        0.1520
     18  C        -14.8570    3.6460    6.8910 C.2     1  LIG1        0.2980
     19  O        -14.4810    3.6450    5.7290 O.2     1  LIG1       -0.2590
     20  C        -14.0540    3.0810    8.0060 C.ar    1  LIG1        0.0400
     21  C        -12.6640    3.0330    7.9090 C.ar    1  LIG1        0.0200
     22  C        -11.9100    2.5030    8.9560 C.ar    1  LIG1        0.0330
     23  C        -12.5460    2.0200   10.1000 C.ar    1  LIG1        0.0750
     24  C        -13.9370    2.0680   10.1970 C.ar    1  LIG1        0.0330
     25  C        -14.6910    2.5980    9.1500 C.ar    1  LIG1        0.0200
     26  N        -11.7900    1.4890   11.1500 N.pl3   1  LIG1       -0.0660
     27  C        -10.9830    2.2810   11.8140 C.cat   1  LIG1        0.6920
     28  N        -10.7750    3.6270   11.6040 N.pl3   1  LIG1       -0.2330
     29  N        -10.2230    1.7980   12.8530 N.pl3   1  LIG1       -0.2330
     30  H        -11.2600    4.0940   10.8860 H       1  LIG1        0.1740
     31  H        -10.1380    4.1200   12.1710 H       1  LIG1        0.1740
     32  H        -10.2810    0.8480   13.1050 H       1  LIG1        0.1740
     33  H         -9.6210    2.4030   13.3450 H       1  LIG1        0.1740
@<TRIPOS>BOND
     1    19    18    2
     2     3     4   ar
     3     3     2   ar
     4     4     5   ar
     5    18     1    1
     6    18    20    1
     7     1     2    1
     8     2     7   ar
     9     5     8    1
    10     5     6   ar
    11    21    20   ar
    12    21    22   ar
    13    20    25   ar
    14     8     9    1
    15    10     9    2
    16     7     6   ar
    17     9    11    1
    18    22    23   ar
    19    25    24   ar
    20    11    12    1
    21    23    24   ar
    22    23    26    1
    23    14    13    2
    24    12    13    1
    25    13    15   am
    26    30    28    1
    27    26    27    2
    28    15    17    1
    29    15    16    1
    30    28    27    1
    31    28    31    1
    32    27    29    1
    33    29    32    1
    34    29    33    1
@<TRIPOS>MOLECULE
./../dock_file/temp/27b69fd683714517436c20faf3ca207e/Camostat_Ligand_CID_2536:hmTMPRSS7:20230418090535/Camostat_Ligand_CID_2536:hmTMPRSS7_out_5.pdbqt
 33 34 0 0 0
SMALL
GASTEIGER

@<TRIPOS>ATOM
      1  O         -9.3480   20.7240   -2.0440 O.3     1  LIG1       -0.2750
      2  C         -8.9750   19.4410   -1.7860 C.ar    1  LIG1        0.0790
      3  C         -9.8790   18.3970   -1.9830 C.ar    1  LIG1        0.0380
      4  C         -9.4970   17.0830   -1.7180 C.ar    1  LIG1        0.0100
      5  C         -8.2080   16.8110   -1.2570 C.ar    1  LIG1       -0.0490
      6  C         -7.3040   17.8540   -1.0600 C.ar    1  LIG1        0.0100
      7  C         -7.6870   19.1690   -1.3250 C.ar    1  LIG1        0.0380
      8  C         -7.7950   15.3910   -0.9700 C.3     1  LIG1        0.1490
      9  C         -8.9380   14.5310   -0.4840 C.2     1  LIG1        0.2630
     10  O         -9.4740   13.6360   -1.1230 O.2     1  LIG1       -0.2650
     11  O         -9.2850   14.9070    0.7920 O.3     1  LIG1       -0.3120
     12  C        -10.5300   14.4390    1.2640 C.3     1  LIG1        0.2810
     13  C        -11.4070   15.6160    1.6410 C.2     1  LIG1        0.2430
     14  O        -11.1180   16.7340    1.2070 O.2     1  LIG1       -0.2710
     15  N        -12.5080   15.3600    2.4590 N.am    1  LIG1       -0.3590
     16  C        -12.8910   14.0500    2.9800 C.3     1  LIG1        0.1520
     17  C        -13.3850   16.4590    2.8420 C.3     1  LIG1        0.1520
     18  C         -9.2200   21.5900   -0.9560 C.2     1  LIG1        0.2980
     19  O         -9.9300   21.5930    0.0390 O.2     1  LIG1       -0.2590
     20  C         -8.1020   22.5450   -1.1590 C.ar    1  LIG1        0.0400
     21  C         -7.0550   22.5990   -0.2390 C.ar    1  LIG1        0.0200
     22  C         -6.0040   23.4960   -0.4310 C.ar    1  LIG1        0.0330
     23  C         -6.0000   24.3390   -1.5420 C.ar    1  LIG1        0.0750
     24  C         -7.0460   24.2850   -2.4620 C.ar    1  LIG1        0.0330
     25  C         -8.0980   23.3880   -2.2710 C.ar    1  LIG1        0.0200
     26  N         -4.9450   25.2380   -1.7340 N.pl3   1  LIG1       -0.0660
     27  C         -3.8610   24.8230   -2.3420 C.cat   1  LIG1        0.6920
     28  N         -3.6130   23.5610   -2.8390 N.pl3   1  LIG1       -0.2330
     29  N         -2.8020   25.6750   -2.5510 N.pl3   1  LIG1       -0.2330
     30  H         -4.2940   22.8560   -2.7520 H       1  LIG1        0.1740
     31  H         -2.7540   23.3660   -3.2790 H       1  LIG1        0.1740
     32  H         -2.8530   26.6080   -2.2430 H       1  LIG1        0.1740
     33  H         -1.9930   25.3510   -3.0100 H       1  LIG1        0.1740
@<TRIPOS>BOND
     1    31    28    1
     2    33    29    1
     3    28    30    1
     4    28    27    1
     5    29    27    1
     6    29    32    1
     7    24    25   ar
     8    24    23   ar
     9    27    26    2
    10    25    20   ar
    11     1     2    1
    12     1    18    1
    13     3     2   ar
    14     3     4   ar
    15     2     7   ar
    16    26    23    1
    17     4     5   ar
    18    23    22   ar
    19     7     6   ar
    20     5     6   ar
    21     5     8    1
    22    20    18    1
    23    20    21   ar
    24    10     9    2
    25     8     9    1
    26    18    19    2
    27     9    11    1
    28    22    21   ar
    29    11    12    1
    30    14    13    2
    31    12    13    1
    32    13    15   am
    33    15    17    1
    34    15    16    1
@<TRIPOS>MOLECULE
./../dock_file/temp/27b69fd683714517436c20faf3ca207e/Camostat_Ligand_CID_2536:hmTMPRSS7:20230418090535/Camostat_Ligand_CID_2536:hmTMPRSS7_out_5.pdbqt
 33 34 0 0 0
SMALL
GASTEIGER

@<TRIPOS>ATOM
      1  O        -17.0190    6.3930    6.9230 O.3     1  LIG1       -0.2750
      2  C        -16.0170    5.5700    7.3360 C.ar    1  LIG1        0.0790
      3  C        -15.6000    5.5900    8.6670 C.ar    1  LIG1        0.0380
      4  C        -14.5740    4.7470    9.0890 C.ar    1  LIG1        0.0100
      5  C        -13.9630    3.8820    8.1800 C.ar    1  LIG1       -0.0490
      6  C        -14.3800    3.8620    6.8490 C.ar    1  LIG1        0.0100
      7  C        -15.4070    4.7060    6.4270 C.ar    1  LIG1        0.0380
      8  C        -12.8530    2.9700    8.6360 C.3     1  LIG1        0.1490
      9  C        -13.1040    2.3750   10.0020 C.2     1  LIG1        0.2630
     10  O        -13.9900    1.5790   10.2760 O.2     1  LIG1       -0.2650
     11  O        -12.1790    2.8660   10.8930 O.3     1  LIG1       -0.3120
     12  C        -10.8790    2.3210   10.8060 C.3     1  LIG1        0.2810
     13  C        -10.5210    1.6460   12.1140 C.2     1  LIG1        0.2430
     14  O        -11.2080    1.8820   13.1110 O.2     1  LIG1       -0.2710
     15  N         -9.4270    0.7800   12.1120 N.am    1  LIG1       -0.3590
     16  C         -8.5990    0.4640   10.9500 C.3     1  LIG1        0.1520
     17  C         -9.0490    0.1000   13.3440 C.3     1  LIG1        0.1520
     18  C        -16.5860    7.6320    6.4450 C.2     1  LIG1        0.2980
     19  O        -16.2200    7.8680    5.3040 O.2     1  LIG1       -0.2590
     20  C        -16.6060    8.6570    7.5200 C.ar    1  LIG1        0.0400
     21  C        -15.4840    9.4550    7.7440 C.ar    1  LIG1        0.0200
     22  C        -15.5030   10.4180    8.7530 C.ar    1  LIG1        0.0330
     23  C        -16.6430   10.5820    9.5390 C.ar    1  LIG1        0.0750
     24  C        -17.7660    9.7840    9.3160 C.ar    1  LIG1        0.0330
     25  C        -17.7470    8.8210    8.3060 C.ar    1  LIG1        0.0200
     26  N        -16.6620   11.5480   10.5510 N.pl3   1  LIG1       -0.0660
     27  C        -16.2300   11.2230   11.7460 C.cat   1  LIG1        0.6920
     28  N        -15.7390   10.0000   12.1510 N.pl3   1  LIG1       -0.2330
     29  N        -16.2320   12.1430   12.7680 N.pl3   1  LIG1       -0.2330
     30  H        -15.6860    9.2550   11.5120 H       1  LIG1        0.1740
     31  H        -15.4430    9.8740   13.0820 H       1  LIG1        0.1740
     32  H        -16.5590   13.0560   12.6070 H       1  LIG1        0.1740
     33  H        -15.9050   11.8860   13.6600 H       1  LIG1        0.1740
@<TRIPOS>BOND
     1    19    18    2
     2     7     6   ar
     3     7     2   ar
     4    18     1    1
     5    18    20    1
     6     6     5   ar
     7     1     2    1
     8     2     3   ar
     9    20    21   ar
    10    20    25   ar
    11    21    22   ar
    12     5     8    1
    13     5     4   ar
    14    25    24   ar
    15     8     9    1
    16     3     4   ar
    17    22    23   ar
    18    24    23   ar
    19    23    26    1
    20     9    10    2
    21     9    11    1
    22    26    27    2
    23    12    11    1
    24    12    13    1
    25    16    15    1
    26    30    28    1
    27    27    28    1
    28    27    29    1
    29    15    13   am
    30    15    17    1
    31    13    14    2
    32    28    31    1
    33    32    29    1
    34    29    33    1
@<TRIPOS>MOLECULE
./../dock_file/temp/27b69fd683714517436c20faf3ca207e/Camostat_Ligand_CID_2536:hmTMPRSS7:20230418090535/Camostat_Ligand_CID_2536:hmTMPRSS7_out_5.pdbqt
 33 34 0 0 0
SMALL
GASTEIGER

@<TRIPOS>ATOM
      1  O        -15.9400    3.9820    7.2620 O.3     1  LIG1       -0.2750
      2  C        -16.0440    5.3100    7.5400 C.ar    1  LIG1        0.0790
      3  C        -16.3390    6.2160    6.5200 C.ar    1  LIG1        0.0380
      4  C        -16.4450    7.5760    6.8050 C.ar    1  LIG1        0.0100
      5  C        -16.2580    8.0330    8.1100 C.ar    1  LIG1       -0.0490
      6  C        -15.9630    7.1270    9.1300 C.ar    1  LIG1        0.0100
      7  C        -15.8560    5.7660    8.8450 C.ar    1  LIG1        0.0380
      8  C        -16.3720    9.5030    8.4180 C.3     1  LIG1        0.1490
      9  C        -15.1360   10.2830    8.0370 C.2     1  LIG1        0.2630
     10  O        -14.0260   10.1390    8.5310 O.2     1  LIG1       -0.2650
     11  O        -15.4480   11.1830    7.0460 O.3     1  LIG1       -0.3120
     12  C        -16.1330   12.3490    7.4540 C.3     1  LIG1        0.2810
     13  C        -16.4190   13.2190    6.2480 C.2     1  LIG1        0.2430
     14  O        -15.4840   13.5300    5.5050 O.2     1  LIG1       -0.2710
     15  N        -17.7410   13.6160    6.0410 N.am    1  LIG1       -0.3590
     16  C        -18.8750   13.2570    6.8890 C.3     1  LIG1        0.1520
     17  C        -18.0670   14.4480    4.8900 C.3     1  LIG1        0.1520
     18  C        -14.6850    3.5890    6.7920 C.2     1  LIG1        0.2980
     19  O        -14.2980    3.6740    5.6360 O.2     1  LIG1       -0.2590
     20  C        -13.8550    3.0270    7.8880 C.ar    1  LIG1        0.0400
     21  C        -12.4750    2.9070    7.7260 C.ar    1  LIG1        0.0200
     22  C        -11.6950    2.3790    8.7560 C.ar    1  LIG1        0.0330
     23  C        -12.2960    1.9690    9.9460 C.ar    1  LIG1        0.0750
     24  C        -13.6760    2.0880   10.1080 C.ar    1  LIG1        0.0330
     25  C        -14.4560    2.6160    9.0780 C.ar    1  LIG1        0.0200
     26  N        -11.5140    1.4390   10.9780 N.pl3   1  LIG1       -0.0660
     27  C        -10.8220    2.2580   11.7330 C.cat   1  LIG1        0.6920
     28  N        -10.7620    3.6320   11.6380 N.pl3   1  LIG1       -0.2330
     29  N        -10.0410    1.7780   12.7580 N.pl3   1  LIG1       -0.2330
     30  H        -11.2770    4.1000   10.9430 H       1  LIG1        0.1740
     31  H        -10.2020    4.1440   12.2660 H       1  LIG1        0.1740
     32  H         -9.9980    0.8100   12.9320 H       1  LIG1        0.1740
     33  H         -9.5270    2.4030   13.3180 H       1  LIG1        0.1740
@<TRIPOS>BOND
     1    17    15    1
     2    14    13    2
     3    19    18    2
     4    15    13   am
     5    15    16    1
     6    13    12    1
     7     3     4   ar
     8     3     2   ar
     9    18     1    1
    10    18    20    1
    11     4     5   ar
    12    11    12    1
    13    11     9    1
    14     1     2    1
    15     2     7   ar
    16    21    20   ar
    17    21    22   ar
    18    20    25   ar
    19     9     8    1
    20     9    10    2
    21     5     8    1
    22     5     6   ar
    23    22    23   ar
    24     7     6   ar
    25    25    24   ar
    26    23    24   ar
    27    23    26    1
    28    30    28    1
    29    26    27    2
    30    28    27    1
    31    28    31    1
    32    27    29    1
    33    29    32    1
    34    29    33    1
@<TRIPOS>MOLECULE
./../dock_file/temp/27b69fd683714517436c20faf3ca207e/Camostat_Ligand_CID_2536:hmTMPRSS7:20230418090535/Camostat_Ligand_CID_2536:hmTMPRSS7_out_5.pdbqt
 33 34 0 0 0
SMALL
GASTEIGER

@<TRIPOS>ATOM
      1  O        -20.7830   13.8950    7.5850 O.3     1  LIG1       -0.2750
      2  C        -20.1970   13.2470    8.6280 C.ar    1  LIG1        0.0790
      3  C        -20.9280   12.9880    9.7880 C.ar    1  LIG1        0.0380
      4  C        -20.3270   12.3240   10.8560 C.ar    1  LIG1        0.0100
      5  C        -18.9960   11.9170   10.7660 C.ar    1  LIG1       -0.0490
      6  C        -18.2650   12.1760    9.6060 C.ar    1  LIG1        0.0100
      7  C        -18.8660   12.8410    8.5370 C.ar    1  LIG1        0.0380
      8  C        -18.3470   11.1990   11.9210 C.3     1  LIG1        0.1490
      9  C        -16.8870   11.5510   12.0880 C.2     1  LIG1        0.2630
     10  O        -16.4570   12.6370   12.4510 O.2     1  LIG1       -0.2650
     11  O        -16.1130   10.4600   11.7700 O.3     1  LIG1       -0.3120
     12  C        -16.8080    9.2800   11.4270 C.3     1  LIG1        0.2810
     13  C        -16.3920    8.8280   10.0430 C.2     1  LIG1        0.2430
     14  O        -15.7140    9.5900    9.3480 O.2     1  LIG1       -0.2710
     15  N        -16.7980    7.5580    9.6320 N.am    1  LIG1       -0.3590
     16  C        -17.5880    6.6220   10.4300 C.3     1  LIG1        0.1520
     17  C        -16.4160    7.0750    8.3120 C.3     1  LIG1        0.1520
     18  C        -21.6420   14.9300    7.9600 C.2     1  LIG1        0.2980
     19  O        -22.8590   14.8530    8.0400 O.2     1  LIG1       -0.2590
     20  C        -20.8870   16.1770    8.2450 C.ar    1  LIG1        0.0400
     21  C        -19.8300   16.5550    7.4180 C.ar    1  LIG1        0.0200
     22  C        -19.1210   17.7270    7.6850 C.ar    1  LIG1        0.0330
     23  C        -19.4680   18.5190    8.7780 C.ar    1  LIG1        0.0750
     24  C        -20.5260   18.1410    9.6060 C.ar    1  LIG1        0.0330
     25  C        -21.2350   16.9690    9.3390 C.ar    1  LIG1        0.0200
     26  N        -18.7570   19.6940    9.0460 N.pl3   1  LIG1       -0.0660
     27  C        -19.1460   20.8120    8.4830 C.cat   1  LIG1        0.6920
     28  N        -20.2100   20.9890    7.6250 N.pl3   1  LIG1       -0.2330
     29  N        -18.4750   21.9880    8.7200 N.pl3   1  LIG1       -0.2330
     30  H        -20.7730   20.2220    7.3740 H       1  LIG1        0.1740
     31  H        -20.4060   21.8830    7.2620 H       1  LIG1        0.1740
     32  H        -17.6930   21.9970    9.3180 H       1  LIG1        0.1740
     33  H        -18.7770   22.8220    8.2910 H       1  LIG1        0.1740
@<TRIPOS>BOND
     1    31    28    1
     2    30    28    1
     3    21    22   ar
     4    21    20   ar
     5     1    18    1
     6     1     2    1
     7    28    27    1
     8    22    23   ar
     9    18    19    2
    10    18    20    1
    11    20    25   ar
    12    33    29    1
    13    17    15    1
    14    27    29    1
    15    27    26    2
    16     7     2   ar
    17     7     6   ar
    18     2     3   ar
    19    29    32    1
    20    23    26    1
    21    23    24   ar
    22    25    24   ar
    23    14    13    2
    24     6     5   ar
    25    15    13   am
    26    15    16    1
    27     3     4   ar
    28    13    12    1
    29     5     4   ar
    30     5     8    1
    31    12    11    1
    32    11     9    1
    33     8     9    1
    34     9    10    2
@<TRIPOS>MOLECULE
./../dock_file/temp/27b69fd683714517436c20faf3ca207e/Camostat_Ligand_CID_2536:hmTMPRSS7:20230418090535/Camostat_Ligand_CID_2536:hmTMPRSS7_out_5.pdbqt
 33 34 0 0 0
SMALL
GASTEIGER

@<TRIPOS>ATOM
      1  O        -20.1740   14.0380    7.8020 O.3     1  LIG1       -0.2750
      2  C        -20.2470   13.0530    8.7380 C.ar    1  LIG1        0.0790
      3  C        -20.0680   13.3570   10.0880 C.ar    1  LIG1        0.0380
      4  C        -20.1420   12.3480   11.0460 C.ar    1  LIG1        0.0100
      5  C        -20.3960   11.0330   10.6570 C.ar    1  LIG1       -0.0490
      6  C        -20.5750   10.7280    9.3070 C.ar    1  LIG1        0.0100
      7  C        -20.5010   11.7380    8.3480 C.ar    1  LIG1        0.0380
      8  C        -20.4770    9.9410   11.6920 C.3     1  LIG1        0.1490
      9  C        -19.3170    8.9760   11.6220 C.2     1  LIG1        0.2630
     10  O        -19.3960    7.7930   11.3220 O.2     1  LIG1       -0.2650
     11  O        -18.1530    9.6320   11.9480 O.3     1  LIG1       -0.3120
     12  C        -16.9950    9.2360   11.2450 C.3     1  LIG1        0.2810
     13  C        -16.6150   10.3080   10.2450 C.2     1  LIG1        0.2430
     14  O        -17.1170   10.2740    9.1180 O.2     1  LIG1       -0.2710
     15  N        -15.7150   11.2880   10.6650 N.am    1  LIG1       -0.3590
     16  C        -15.1110   11.3710   11.9930 C.3     1  LIG1        0.1520
     17  C        -15.3250   12.3460    9.7410 C.3     1  LIG1        0.1520
     18  C        -21.1460   15.0330    7.9380 C.2     1  LIG1        0.2980
     19  O        -22.3520   14.8690    7.8420 O.2     1  LIG1       -0.2590
     20  C        -20.5240   16.3550    8.2070 C.ar    1  LIG1        0.0400
     21  C        -19.4760   16.8070    7.4060 C.ar    1  LIG1        0.0200
     22  C        -18.8920   18.0490    7.6580 C.ar    1  LIG1        0.0330
     23  C        -19.3570   18.8380    8.7100 C.ar    1  LIG1        0.0750
     24  C        -20.4050   18.3850    9.5110 C.ar    1  LIG1        0.0330
     25  C        -20.9890   17.1430    9.2600 C.ar    1  LIG1        0.0200
     26  N        -18.7710   20.0830    8.9620 N.pl3   1  LIG1       -0.0660
     27  C        -19.2490   21.1430    8.3550 C.cat   1  LIG1        0.6920
     28  N        -20.2980   21.1910    7.4620 N.pl3   1  LIG1       -0.2330
     29  N        -18.7030   22.3850    8.5760 N.pl3   1  LIG1       -0.2330
     30  H        -20.7750   20.3660    7.2190 H       1  LIG1        0.1740
     31  H        -20.5680   22.0520    7.0670 H       1  LIG1        0.1740
     32  H        -17.9450   22.4860    9.1950 H       1  LIG1        0.1740
     33  H        -19.0710   23.1730    8.1140 H       1  LIG1        0.1740
@<TRIPOS>BOND
     1    31    28    1
     2    30    28    1
     3    21    22   ar
     4    21    20   ar
     5    28    27    1
     6    22    23   ar
     7     1    18    1
     8     1     2    1
     9    19    18    2
    10    18    20    1
    11    33    29    1
    12    20    25   ar
    13     7     2   ar
    14     7     6   ar
    15    27    29    1
    16    27    26    2
    17    29    32    1
    18    23    26    1
    19    23    24   ar
    20     2     3   ar
    21    14    13    2
    22    25    24   ar
    23     6     5   ar
    24    17    15    1
    25     3     4   ar
    26    13    15   am
    27    13    12    1
    28     5     4   ar
    29     5     8    1
    30    15    16    1
    31    12    11    1
    32    10     9    2
    33     9     8    1
    34     9    11    1
@<TRIPOS>MOLECULE
./../dock_file/temp/27b69fd683714517436c20faf3ca207e/Camostat_Ligand_CID_2536:hmTMPRSS7:20230418090535/Camostat_Ligand_CID_2536:hmTMPRSS7_out_5.pdbqt
 33 34 0 0 0
SMALL
GASTEIGER

@<TRIPOS>ATOM
      1  O        -20.8150   10.2820   11.6470 O.3     1  LIG1       -0.2750
      2  C        -19.5780   10.8210   11.4680 C.ar    1  LIG1        0.0790
      3  C        -18.5060   10.3820   12.2450 C.ar    1  LIG1        0.0380
      4  C        -17.2390   10.9330   12.0620 C.ar    1  LIG1        0.0100
      5  C        -17.0420   11.9240   11.1000 C.ar    1  LIG1       -0.0490
      6  C        -18.1140   12.3640   10.3220 C.ar    1  LIG1        0.0100
      7  C        -19.3820   11.8110   10.5060 C.ar    1  LIG1        0.0380
      8  C        -15.6730   12.5210   10.9010 C.3     1  LIG1        0.1490
      9  C        -15.0050   12.0520    9.6300 C.2     1  LIG1        0.2630
     10  O        -14.6550   12.7720    8.7050 O.2     1  LIG1       -0.2650
     11  O        -14.8470   10.6870    9.6710 O.3     1  LIG1       -0.3120
     12  C        -15.1160    9.9910    8.4720 C.3     1  LIG1        0.2810
     13  C        -16.5760    9.5900    8.4310 C.2     1  LIG1        0.2430
     14  O        -16.9890    8.7700    9.2560 O.2     1  LIG1       -0.2710
     15  N        -17.3790   10.1860    7.4580 N.am    1  LIG1       -0.3590
     16  C        -16.9300   11.1710    6.4770 C.3     1  LIG1        0.1520
     17  C        -18.7920    9.8390    7.3860 C.3     1  LIG1        0.1520
     18  C        -20.9320    8.9580   11.2190 C.2     1  LIG1        0.2980
     19  O        -20.9670    8.5840   10.0560 O.2     1  LIG1       -0.2590
     20  C        -21.0290    8.0290   12.3740 C.ar    1  LIG1        0.0400
     21  C        -20.0320    7.0790   12.5900 C.ar    1  LIG1        0.0200
     22  C        -20.1230    6.2070   13.6750 C.ar    1  LIG1        0.0330
     23  C        -21.2120    6.2840   14.5430 C.ar    1  LIG1        0.0750
     24  C        -22.2100    7.2350   14.3270 C.ar    1  LIG1        0.0330
     25  C        -22.1190    8.1070   13.2420 C.ar    1  LIG1        0.0200
     26  N        -21.3030    5.4100   15.6310 N.pl3   1  LIG1       -0.0660
     27  C        -20.7360    5.7470   16.7650 C.cat   1  LIG1        0.6920
     28  N        -20.0320    6.9010   17.0350 N.pl3   1  LIG1       -0.2330
     29  N        -20.8030    4.9160   17.8580 N.pl3   1  LIG1       -0.2330
     30  H        -19.9120    7.5790   16.3340 H       1  LIG1        0.1740
     31  H        -19.6490    7.0440   17.9310 H       1  LIG1        0.1740
     32  H        -21.2800    4.0580   17.7960 H       1  LIG1        0.1740
     33  H        -20.3740    5.1800   18.7040 H       1  LIG1        0.1740
@<TRIPOS>BOND
     1    16    15    1
     2    17    15    1
     3    15    13   am
     4    13    12    1
     5    13    14    2
     6    12    11    1
     7    10     9    2
     8     9    11    1
     9     9     8    1
    10    19    18    2
    11     6     7   ar
    12     6     5   ar
    13     7     2   ar
    14     8     5    1
    15     5     4   ar
    16    18     1    1
    17    18    20    1
    18     2     1    1
    19     2     3   ar
    20     4     3   ar
    21    20    21   ar
    22    20    25   ar
    23    21    22   ar
    24    25    24   ar
    25    22    23   ar
    26    24    23   ar
    27    23    26    1
    28    26    27    2
    29    30    28    1
    30    27    28    1
    31    27    29    1
    32    28    31    1
    33    32    29    1
    34    29    33    1
@<TRIPOS>MOLECULE
./../dock_file/temp/27b69fd683714517436c20faf3ca207e/Camostat_Ligand_CID_2536:hmTMPRSS7:20230418090535/Camostat_Ligand_CID_2536:hmTMPRSS7_out_5.pdbqt
 33 34 0 0 0
SMALL
GASTEIGER

@<TRIPOS>ATOM
      1  O        -16.0830    8.3230    6.5790 O.3     1  LIG1       -0.2750
      2  C        -16.0170    9.3370    7.4840 C.ar    1  LIG1        0.0790
      3  C        -15.5410    9.0930    8.7730 C.ar    1  LIG1        0.0380
      4  C        -15.4740   10.1330    9.6990 C.ar    1  LIG1        0.0100
      5  C        -15.8810   11.4170    9.3380 C.ar    1  LIG1       -0.0490
      6  C        -16.3570   11.6610    8.0500 C.ar    1  LIG1        0.0100
      7  C        -16.4250   10.6210    7.1220 C.ar    1  LIG1        0.0380
      8  C        -15.8080   12.5410   10.3390 C.3     1  LIG1        0.1490
      9  C        -16.7220   12.3340   11.5250 C.2     1  LIG1        0.2630
     10  O        -16.3640   12.2700   12.6920 O.2     1  LIG1       -0.2650
     11  O        -18.0220   12.2300   11.0890 O.3     1  LIG1       -0.3120
     12  C        -18.7410   11.1000   11.5360 C.3     1  LIG1        0.2810
     13  C        -19.5480   10.5250   10.3910 C.2     1  LIG1        0.2430
     14  O        -18.9910    9.7620    9.5960 O.2     1  LIG1       -0.2710
     15  N        -20.8930   10.8880   10.3070 N.am    1  LIG1       -0.3590
     16  C        -21.5910   11.7750   11.2350 C.3     1  LIG1        0.1520
     17  C        -21.7130   10.3530    9.2270 C.3     1  LIG1        0.1520
     18  C        -16.9760    7.3040    6.9220 C.2     1  LIG1        0.2980
     19  O        -18.1850    7.4270    7.0450 O.2     1  LIG1       -0.2590
     20  C        -16.2640    6.0200    7.1420 C.ar    1  LIG1        0.0400
     21  C        -15.8390    5.2620    6.0520 C.ar    1  LIG1        0.0200
     22  C        -15.1690    4.0560    6.2590 C.ar    1  LIG1        0.0330
     23  C        -14.9250    3.6070    7.5560 C.ar    1  LIG1        0.0750
     24  C        -15.3500    4.3650    8.6480 C.ar    1  LIG1        0.0330
     25  C        -16.0200    5.5710    8.4410 C.ar    1  LIG1        0.0200
     26  N        -14.2540    2.3980    7.7640 N.pl3   1  LIG1       -0.0660
     27  C        -12.9440    2.4040    7.8390 C.cat   1  LIG1        0.6920
     28  N        -12.1080    3.4950    7.7350 N.pl3   1  LIG1       -0.2330
     29  N        -12.2470    1.2370    8.0420 N.pl3   1  LIG1       -0.2330
     30  H        -12.4850    4.3920    7.5880 H       1  LIG1        0.1740
     31  H        -11.1330    3.3750    7.8080 H       1  LIG1        0.1740
     32  H        -12.7300    0.3850    8.1340 H       1  LIG1        0.1740
     33  H        -11.2640    1.2550    8.0970 H       1  LIG1        0.1740
@<TRIPOS>BOND
     1    21    22   ar
     2    21    20   ar
     3    22    23   ar
     4     1    18    1
     5     1     2    1
     6    18    19    2
     7    18    20    1
     8     7     2   ar
     9     7     6   ar
    10    20    25   ar
    11     2     3   ar
    12    23    26    1
    13    23    24   ar
    14    30    28    1
    15    28    31    1
    16    28    27    1
    17    26    27    2
    18    27    29    1
    19    29    33    1
    20    29    32    1
    21     6     5   ar
    22    25    24   ar
    23     3     4   ar
    24    17    15    1
    25     5     4   ar
    26     5     8    1
    27    14    13    2
    28    15    13   am
    29    15    16    1
    30     8     9    1
    31    13    12    1
    32    11     9    1
    33    11    12    1
    34     9    10    2
@<TRIPOS>MOLECULE
./../dock_file/temp/27b69fd683714517436c20faf3ca207e/Camostat_Ligand_CID_2536:hmTMPRSS7:20230418090535/Camostat_Ligand_CID_2536:hmTMPRSS7_out_5.pdbqt
 33 34 0 0 0
SMALL
GASTEIGER

@<TRIPOS>ATOM
      1  O        -21.4250   11.3100    9.9780 O.3     1  LIG1       -0.2750
      2  C        -20.1070   11.5800   10.1840 C.ar    1  LIG1        0.0790
      3  C        -19.3670   12.2340    9.1990 C.ar    1  LIG1        0.0380
      4  C        -18.0170   12.5100    9.4100 C.ar    1  LIG1        0.0100
      5  C        -17.4060   12.1340   10.6060 C.ar    1  LIG1       -0.0490
      6  C        -18.1470   11.4800   11.5910 C.ar    1  LIG1        0.0100
      7  C        -19.4980   11.2040   11.3800 C.ar    1  LIG1        0.0380
      8  C        -15.9470   12.4320   10.8350 C.3     1  LIG1        0.1490
      9  C        -15.0660   11.9690    9.6980 C.2     1  LIG1        0.2630
     10  O        -14.6200   12.6830    8.8110 O.2     1  LIG1       -0.2650
     11  O        -14.8390   10.6180    9.8140 O.3     1  LIG1       -0.3120
     12  C        -14.8080    9.8840    8.6080 C.3     1  LIG1        0.2810
     13  C        -16.2190    9.7030    8.0860 C.2     1  LIG1        0.2430
     14  O        -16.5420   10.2720    7.0400 O.2     1  LIG1       -0.2710
     15  N        -17.0760    8.8850    8.8240 N.am    1  LIG1       -0.3590
     16  C        -16.7260    8.1840   10.0560 C.3     1  LIG1        0.1520
     17  C        -18.4400    8.6730    8.3570 C.3     1  LIG1        0.1520
     18  C        -21.8360   10.0600   10.4460 C.2     1  LIG1        0.2980
     19  O        -21.3890    8.9820   10.0840 O.2     1  LIG1       -0.2590
     20  C        -22.9210   10.1940   11.4520 C.ar    1  LIG1        0.0400
     21  C        -22.9900    9.3070   12.5250 C.ar    1  LIG1        0.0200
     22  C        -24.0080    9.4340   13.4700 C.ar    1  LIG1        0.0330
     23  C        -24.9580   10.4470   13.3410 C.ar    1  LIG1        0.0750
     24  C        -24.8900   11.3340   12.2660 C.ar    1  LIG1        0.0330
     25  C        -23.8710   11.2080   11.3220 C.ar    1  LIG1        0.0200
     26  N        -25.9800   10.5730   14.2880 N.pl3   1  LIG1       -0.0660
     27  C        -25.8610   11.4770   15.2310 C.cat   1  LIG1        0.6920
     28  N        -24.8160   12.3560   15.4180 N.pl3   1  LIG1       -0.2330
     29  N        -26.8420   11.6340   16.1810 N.pl3   1  LIG1       -0.2330
     30  H        -24.0470   12.3450   14.8040 H       1  LIG1        0.1740
     31  H        -24.8380   12.9930   16.1690 H       1  LIG1        0.1740
     32  H        -27.6450   11.0650   16.1580 H       1  LIG1        0.1740
     33  H        -26.7420   12.3160   16.8840 H       1  LIG1        0.1740
@<TRIPOS>BOND
     1    14    13    2
     2    13    12    1
     3    13    15   am
     4    17    15    1
     5    12    11    1
     6    10     9    2
     7    15    16    1
     8     3     4   ar
     9     3     2   ar
    10     4     5   ar
    11     9    11    1
    12     9     8    1
    13     1     2    1
    14     1    18    1
    15    19    18    2
    16     2     7   ar
    17    18    20    1
    18     5     8    1
    19     5     6   ar
    20    25    20   ar
    21    25    24   ar
    22     7     6   ar
    23    20    21   ar
    24    24    23   ar
    25    21    22   ar
    26    23    22   ar
    27    23    26    1
    28    26    27    2
    29    30    28    1
    30    27    28    1
    31    27    29    1
    32    28    31    1
    33    32    29    1
    34    29    33    1
