@<TRIPOS>MOLECULE
./../dock_file/temp/9f6a3161eb4a362e535671bfaeb94ee7/Camostat_Ligand_CID_2536:hmTMPRSS9:20230418095913/Camostat_Ligand_CID_2536:hmTMPRSS9_out_3.pdbqt
 33 34 0 0 0
SMALL
GASTEIGER

@<TRIPOS>ATOM
      1  O         13.5310   -8.0190   33.1920 O.3     1  LIG1       -0.2750
      2  C         14.2800   -7.0320   32.6290 C.ar    1  LIG1        0.0790
      3  C         14.0570   -5.7000   32.9790 C.ar    1  LIG1        0.0380
      4  C         14.8250   -4.6890   32.4020 C.ar    1  LIG1        0.0100
      5  C         15.8180   -5.0090   31.4750 C.ar    1  LIG1       -0.0490
      6  C         16.0410   -6.3410   31.1250 C.ar    1  LIG1        0.0100
      7  C         15.2730   -7.3530   31.7030 C.ar    1  LIG1        0.0380
      8  C         16.6480   -3.9170   30.8520 C.3     1  LIG1        0.1490
      9  C         15.9960   -3.3040   29.6350 C.2     1  LIG1        0.2630
     10  O         15.1620   -2.4100   29.6520 O.2     1  LIG1       -0.2650
     11  O         16.4850   -3.9060   28.4990 O.3     1  LIG1       -0.3120
     12  C         15.5880   -4.7420   27.8000 C.3     1  LIG1        0.2810
     13  C         16.3470   -5.8940   27.1750 C.2     1  LIG1        0.2430
     14  O         16.8180   -6.7640   27.9120 O.2     1  LIG1       -0.2710
     15  N         16.4620   -5.9080   25.7840 N.am    1  LIG1       -0.3590
     16  C         15.9060   -4.9060   24.8780 C.3     1  LIG1        0.1520
     17  C         17.1760   -7.0010   25.1360 C.3     1  LIG1        0.1520
     18  C         14.2630   -9.1410   33.5870 C.2     1  LIG1        0.2980
     19  O         15.4290   -9.1390   33.9520 O.2     1  LIG1       -0.2590
     20  C         13.4420  -10.3750   33.4960 C.ar    1  LIG1        0.0400
     21  C         12.0950  -10.2920   33.1460 C.ar    1  LIG1        0.0200
     22  C         11.3240  -11.4510   33.0600 C.ar    1  LIG1        0.0330
     23  C         11.8990  -12.6930   33.3250 C.ar    1  LIG1        0.0750
     24  C         13.2470  -12.7770   33.6760 C.ar    1  LIG1        0.0330
     25  C         14.0180  -11.6180   33.7620 C.ar    1  LIG1        0.0200
     26  N         11.1260  -13.8560   33.2390 N.pl3   1  LIG1       -0.0660
     27  C         10.3750  -14.1940   34.2590 C.cat   1  LIG1        0.6920
     28  N         10.2430  -13.5250   35.4570 N.pl3   1  LIG1       -0.2330
     29  N          9.5990  -15.3290   34.2140 N.pl3   1  LIG1       -0.2330
     30  H         10.7470  -12.6960   35.6150 H       1  LIG1        0.1740
     31  H          9.6440  -13.8790   36.1540 H       1  LIG1        0.1740
     32  H          9.6040  -15.8970   33.4110 H       1  LIG1        0.1740
     33  H          9.0390  -15.5730   34.9870 H       1  LIG1        0.1740
@<TRIPOS>BOND
     1    16    15    1
     2    17    15    1
     3    15    13   am
     4    13    12    1
     5    13    14    2
     6    12    11    1
     7    11     9    1
     8     9    10    2
     9     9     8    1
    10     8     5    1
    11     6     5   ar
    12     6     7   ar
    13     5     4   ar
    14     7     2   ar
    15     4     3   ar
    16     2     3   ar
    17     2     1    1
    18    22    21   ar
    19    22    23   ar
    20    21    20   ar
    21     1    18    1
    22    26    23    1
    23    26    27    2
    24    23    24   ar
    25    32    29    1
    26    20    18    1
    27    20    25   ar
    28    18    19    2
    29    24    25   ar
    30    29    27    1
    31    29    33    1
    32    27    28    1
    33    28    30    1
    34    28    31    1
@<TRIPOS>MOLECULE
./../dock_file/temp/9f6a3161eb4a362e535671bfaeb94ee7/Camostat_Ligand_CID_2536:hmTMPRSS9:20230418095913/Camostat_Ligand_CID_2536:hmTMPRSS9_out_3.pdbqt
 33 34 0 0 0
SMALL
GASTEIGER

@<TRIPOS>ATOM
      1  O         19.7880    4.5430   32.6620 O.3     1  LIG1       -0.2750
      2  C         20.8980    4.8170   31.9240 C.ar    1  LIG1        0.0790
      3  C         20.9240    4.5180   30.5620 C.ar    1  LIG1        0.0380
      4  C         22.0610    4.7990   29.8070 C.ar    1  LIG1        0.0100
      5  C         23.1750    5.3820   30.4140 C.ar    1  LIG1       -0.0490
      6  C         23.1490    5.6820   31.7760 C.ar    1  LIG1        0.0100
      7  C         22.0110    5.4000   32.5310 C.ar    1  LIG1        0.0380
      8  C         24.4040    5.6870   29.5980 C.3     1  LIG1        0.1490
      9  C         24.9390    4.4790   28.8640 C.2     1  LIG1        0.2630
     10  O         25.1420    4.4140   27.6600 O.2     1  LIG1       -0.2650
     11  O         25.1640    3.4600   29.7600 O.3     1  LIG1       -0.3120
     12  C         26.5030    3.0310   29.8930 C.3     1  LIG1        0.2810
     13  C         26.5640    1.8320   30.8160 C.2     1  LIG1        0.2430
     14  O         25.8740    0.8430   30.5510 O.2     1  LIG1       -0.2710
     15  N         27.4130    1.9130   31.9200 N.am    1  LIG1       -0.3590
     16  C         28.2550    3.0580   32.2590 C.3     1  LIG1        0.1520
     17  C         27.5120    0.7810   32.8320 C.3     1  LIG1        0.1520
     18  C         19.4920    3.1820   32.7700 C.2     1  LIG1        0.2980
     19  O         20.1890    2.2660   32.3590 O.2     1  LIG1       -0.2590
     20  C         18.1890    2.9690   33.4490 C.ar    1  LIG1        0.0400
     21  C         17.7300    1.6750   33.6890 C.ar    1  LIG1        0.0200
     22  C         16.5060    1.4750   34.3270 C.ar    1  LIG1        0.0330
     23  C         15.7390    2.5710   34.7230 C.ar    1  LIG1        0.0750
     24  C         16.1970    3.8660   34.4830 C.ar    1  LIG1        0.0330
     25  C         17.4220    4.0660   33.8450 C.ar    1  LIG1        0.0200
     26  N         14.5110    2.3710   35.3630 N.pl3   1  LIG1       -0.0660
     27  C         13.4050    2.6330   34.7080 C.cat   1  LIG1        0.6920
     28  N         13.2910    3.1000   33.4160 N.pl3   1  LIG1       -0.2330
     29  N         12.1780    2.4500   35.3000 N.pl3   1  LIG1       -0.2330
     30  H         14.0990    3.2730   32.8820 H       1  LIG1        0.1740
     31  H         12.4000    3.2620   33.0290 H       1  LIG1        0.1740
     32  H         12.1220    2.1180   36.2250 H       1  LIG1        0.1740
     33  H         11.3550    2.6500   34.7980 H       1  LIG1        0.1740
@<TRIPOS>BOND
     1    10     9    2
     2     9     8    1
     3     9    11    1
     4     8     5    1
     5    11    12    1
     6     4     5   ar
     7     4     3   ar
     8    12    13    1
     9     5     6   ar
    10    14    13    2
    11     3     2   ar
    12    13    15   am
    13     6     7   ar
    14    15    16    1
    15    15    17    1
    16     2     7   ar
    17     2     1    1
    18    19    18    2
    19     1    18    1
    20    18    20    1
    21    30    28    1
    22    31    28    1
    23    28    27    1
    24    20    21   ar
    25    20    25   ar
    26    21    22   ar
    27    25    24   ar
    28    22    23   ar
    29    24    23   ar
    30    27    29    1
    31    27    26    2
    32    23    26    1
    33    33    29    1
    34    29    32    1
@<TRIPOS>MOLECULE
./../dock_file/temp/9f6a3161eb4a362e535671bfaeb94ee7/Camostat_Ligand_CID_2536:hmTMPRSS9:20230418095913/Camostat_Ligand_CID_2536:hmTMPRSS9_out_3.pdbqt
 33 34 0 0 0
SMALL
GASTEIGER

@<TRIPOS>ATOM
      1  O         14.6300  -10.5220   33.1040 O.3     1  LIG1       -0.2750
      2  C         13.8750   -9.4020   32.9430 C.ar    1  LIG1        0.0790
      3  C         14.4910   -8.1650   32.7540 C.ar    1  LIG1        0.0380
      4  C         13.7170   -7.0170   32.5900 C.ar    1  LIG1        0.0100
      5  C         12.3250   -7.1050   32.6140 C.ar    1  LIG1       -0.0490
      6  C         11.7080   -8.3420   32.8040 C.ar    1  LIG1        0.0100
      7  C         12.4830   -9.4900   32.9680 C.ar    1  LIG1        0.0380
      8  C         11.4880   -5.8650   32.4370 C.3     1  LIG1        0.1490
      9  C         10.8400   -5.4030   33.7210 C.2     1  LIG1        0.2630
     10  O          9.6980   -5.6640   34.0730 O.2     1  LIG1       -0.2650
     11  O         11.7340   -4.6420   34.4370 O.3     1  LIG1       -0.3120
     12  C         11.9660   -5.0430   35.7710 C.3     1  LIG1        0.2810
     13  C         13.4070   -5.4790   35.9290 C.2     1  LIG1        0.2430
     14  O         14.2980   -4.6310   35.8260 O.2     1  LIG1       -0.2710
     15  N         13.6450   -6.8280   36.1920 N.am    1  LIG1       -0.3590
     16  C         12.6180   -7.8570   36.3350 C.3     1  LIG1        0.1520
     17  C         15.0160   -7.2940   36.3600 C.3     1  LIG1        0.1520
     18  C         14.6110  -11.0480   34.3980 C.2     1  LIG1        0.2980
     19  O         15.2950  -10.6610   35.3340 O.2     1  LIG1       -0.2590
     20  C         13.6490  -12.1740   34.5040 C.ar    1  LIG1        0.0400
     21  C         12.6940  -12.1810   35.5200 C.ar    1  LIG1        0.0200
     22  C         11.7900  -13.2390   35.6200 C.ar    1  LIG1        0.0330
     23  C         11.8410  -14.2900   34.7040 C.ar    1  LIG1        0.0750
     24  C         12.7970  -14.2830   33.6880 C.ar    1  LIG1        0.0330
     25  C         13.7010  -13.2250   33.5880 C.ar    1  LIG1        0.0200
     26  N         10.9350  -15.3500   34.8040 N.pl3   1  LIG1       -0.0660
     27  C          9.7640  -15.2400   34.2230 C.cat   1  LIG1        0.6920
     28  N          9.2910  -14.1700   33.4950 N.pl3   1  LIG1       -0.2330
     29  N          8.8450  -16.2600   34.2980 N.pl3   1  LIG1       -0.2330
     30  H          9.8540  -13.3740   33.3680 H       1  LIG1        0.1740
     31  H          8.3870  -14.2020   33.1040 H       1  LIG1        0.1740
     32  H          9.0620  -17.0840   34.7900 H       1  LIG1        0.1740
     33  H          7.9690  -16.1660   33.8570 H       1  LIG1        0.1740
@<TRIPOS>BOND
     1     8     5    1
     2     8     9    1
     3     4     5   ar
     4     4     3   ar
     5     5     6   ar
     6     3     2   ar
     7     6     7   ar
     8     2     7   ar
     9     2     1    1
    10     1    18    1
    11    31    28    1
    12    30    28    1
    13    28    27    1
    14    25    24   ar
    15    25    20   ar
    16    24    23   ar
    17     9    10    2
    18     9    11    1
    19    33    29    1
    20    27    29    1
    21    27    26    2
    22    29    32    1
    23    18    20    1
    24    18    19    2
    25    11    12    1
    26    20    21   ar
    27    23    26    1
    28    23    22   ar
    29    21    22   ar
    30    12    13    1
    31    14    13    2
    32    13    15   am
    33    15    16    1
    34    15    17    1
@<TRIPOS>MOLECULE
./../dock_file/temp/9f6a3161eb4a362e535671bfaeb94ee7/Camostat_Ligand_CID_2536:hmTMPRSS9:20230418095913/Camostat_Ligand_CID_2536:hmTMPRSS9_out_3.pdbqt
 33 34 0 0 0
SMALL
GASTEIGER

@<TRIPOS>ATOM
      1  O         16.6120    3.1690   35.3940 O.3     1  LIG1       -0.2750
      2  C         15.8120    2.0680   35.3780 C.ar    1  LIG1        0.0790
      3  C         14.6760    2.0180   36.1850 C.ar    1  LIG1        0.0380
      4  C         13.8560    0.8910   36.1680 C.ar    1  LIG1        0.0100
      5  C         14.1720   -0.1890   35.3420 C.ar    1  LIG1       -0.0490
      6  C         15.3080   -0.1390   34.5340 C.ar    1  LIG1        0.0100
      7  C         16.1280    0.9890   34.5520 C.ar    1  LIG1        0.0380
      8  C         13.2870   -1.4080   35.3230 C.3     1  LIG1        0.1490
      9  C         13.7200   -2.4660   36.3100 C.2     1  LIG1        0.2630
     10  O         14.5430   -2.3090   37.2010 O.2     1  LIG1       -0.2650
     11  O         13.0440   -3.6360   36.0560 O.3     1  LIG1       -0.3120
     12  C         12.4470   -3.7470   34.7810 C.3     1  LIG1        0.2810
     13  C         11.3090   -4.7450   34.8360 C.2     1  LIG1        0.2430
     14  O         10.2140   -4.3720   35.2660 O.2     1  LIG1       -0.2710
     15  N         11.5680   -6.0390   34.3850 N.am    1  LIG1       -0.3590
     16  C         12.8450   -6.5130   33.8570 C.3     1  LIG1        0.1520
     17  C         10.5020   -7.0330   34.4110 C.3     1  LIG1        0.1520
     18  C         16.5420    3.9480   34.2370 C.2     1  LIG1        0.2980
     19  O         15.5320    4.4730   33.7920 O.2     1  LIG1       -0.2590
     20  C         17.8700    4.0560   33.5820 C.ar    1  LIG1        0.0400
     21  C         18.4510    5.3080   33.3840 C.ar    1  LIG1        0.0200
     22  C         19.6990    5.4090   32.7690 C.ar    1  LIG1        0.0330
     23  C         20.3660    4.2580   32.3510 C.ar    1  LIG1        0.0750
     24  C         19.7850    3.0050   32.5490 C.ar    1  LIG1        0.0330
     25  C         18.5370    2.9040   33.1640 C.ar    1  LIG1        0.0200
     26  N         21.6170    4.3590   31.7350 N.pl3   1  LIG1       -0.0660
     27  C         21.6730    4.4810   30.4300 C.cat   1  LIG1        0.6920
     28  N         20.6140    4.5240   29.5500 N.pl3   1  LIG1       -0.2330
     29  N         22.8830    4.5840   29.7850 N.pl3   1  LIG1       -0.2330
     30  H         19.6910    4.4590   29.8860 H       1  LIG1        0.1740
     31  H         20.7810    4.6170   28.5840 H       1  LIG1        0.1740
     32  H         23.7200    4.5670   30.3030 H       1  LIG1        0.1740
     33  H         22.9120    4.6750   28.8050 H       1  LIG1        0.1740
@<TRIPOS>BOND
     1    31    28    1
     2    33    29    1
     3    28    30    1
     4    28    27    1
     5    29    32    1
     6    29    27    1
     7    27    26    2
     8    26    23    1
     9    23    24   ar
    10    23    22   ar
    11    24    25   ar
    12    22    21   ar
    13    25    20   ar
    14    21    20   ar
    15    20    18    1
    16    19    18    2
    17    16    15    1
    18    18     1    1
    19    15    17    1
    20    15    13   am
    21     6     7   ar
    22     6     5   ar
    23     7     2   ar
    24    12    13    1
    25    12    11    1
    26    13    14    2
    27     8     5    1
    28     8     9    1
    29     5     4   ar
    30     2     1    1
    31     2     3   ar
    32    11     9    1
    33     4     3   ar
    34     9    10    2
@<TRIPOS>MOLECULE
./../dock_file/temp/9f6a3161eb4a362e535671bfaeb94ee7/Camostat_Ligand_CID_2536:hmTMPRSS9:20230418095913/Camostat_Ligand_CID_2536:hmTMPRSS9_out_3.pdbqt
 33 34 0 0 0
SMALL
GASTEIGER

@<TRIPOS>ATOM
      1  O         11.3930   -7.9900   33.6510 O.3     1  LIG1       -0.2750
      2  C         11.6760   -7.0140   34.5560 C.ar    1  LIG1        0.0790
      3  C         11.0810   -5.7570   34.4370 C.ar    1  LIG1        0.0380
      4  C         11.3710   -4.7580   35.3640 C.ar    1  LIG1        0.0100
      5  C         12.2540   -5.0140   36.4140 C.ar    1  LIG1       -0.0490
      6  C         12.8480   -6.2710   36.5330 C.ar    1  LIG1        0.0100
      7  C         12.5590   -7.2710   35.6050 C.ar    1  LIG1        0.0380
      8  C         12.5680   -3.9340   37.4160 C.3     1  LIG1        0.1490
      9  C         13.4320   -2.8340   36.8470 C.2     1  LIG1        0.2630
     10  O         14.3000   -2.9830   35.9980 O.2     1  LIG1       -0.2650
     11  O         13.0930   -1.6360   37.4290 O.3     1  LIG1       -0.3120
     12  C         14.0560   -0.6060   37.3450 C.3     1  LIG1        0.2810
     13  C         13.3640    0.7200   37.1110 C.2     1  LIG1        0.2430
     14  O         12.8560    1.3020   38.0720 O.2     1  LIG1       -0.2710
     15  N         13.3510    1.2160   35.8060 N.am    1  LIG1       -0.3590
     16  C         13.9540    0.5640   34.6460 C.3     1  LIG1        0.1520
     17  C         12.7050    2.4930   35.5320 C.3     1  LIG1        0.1520
     18  C         12.5190   -8.5780   33.0700 C.2     1  LIG1        0.2980
     19  O         13.4280   -7.9810   32.5130 O.2     1  LIG1       -0.2590
     20  C         12.4760  -10.0570   33.1960 C.ar    1  LIG1        0.0400
     21  C         13.6450  -10.7680   33.4650 C.ar    1  LIG1        0.0200
     22  C         13.6040  -12.1580   33.5840 C.ar    1  LIG1        0.0330
     23  C         12.3940  -12.8360   33.4330 C.ar    1  LIG1        0.0750
     24  C         11.2250  -12.1240   33.1640 C.ar    1  LIG1        0.0330
     25  C         11.2660  -10.7350   33.0450 C.ar    1  LIG1        0.0200
     26  N         12.3540  -14.2290   33.5520 N.pl3   1  LIG1       -0.0660
     27  C         12.0790  -14.7570   34.7210 C.cat   1  LIG1        0.6920
     28  N         11.8130  -14.0900   35.8970 N.pl3   1  LIG1       -0.2330
     29  N         12.0290  -16.1220   34.8800 N.pl3   1  LIG1       -0.2330
     30  H         11.8190  -13.1060   35.9170 H       1  LIG1        0.1740
     31  H         11.6200  -14.5980   36.7180 H       1  LIG1        0.1740
     32  H         12.2000  -16.7140   34.1130 H       1  LIG1        0.1740
     33  H         11.8210  -16.5070   35.7630 H       1  LIG1        0.1740
@<TRIPOS>BOND
     1    19    18    2
     2    25    24   ar
     3    25    20   ar
     4    18    20    1
     5    18     1    1
     6    24    23   ar
     7    20    21   ar
     8    23    26    1
     9    23    22   ar
    10    21    22   ar
    11    26    27    2
    12     1     2    1
    13    32    29    1
    14     3     2   ar
    15     3     4   ar
    16     2     7   ar
    17    16    15    1
    18    27    29    1
    19    27    28    1
    20    29    33    1
    21     4     5   ar
    22    17    15    1
    23     7     6   ar
    24    15    13   am
    25    28    30    1
    26    28    31    1
    27    10     9    2
    28     5     6   ar
    29     5     8    1
    30     9     8    1
    31     9    11    1
    32    13    12    1
    33    13    14    2
    34    12    11    1
@<TRIPOS>MOLECULE
./../dock_file/temp/9f6a3161eb4a362e535671bfaeb94ee7/Camostat_Ligand_CID_2536:hmTMPRSS9:20230418095913/Camostat_Ligand_CID_2536:hmTMPRSS9_out_3.pdbqt
 33 34 0 0 0
SMALL
GASTEIGER

@<TRIPOS>ATOM
      1  O         12.0110   -9.0740   32.6050 O.3     1  LIG1       -0.2750
      2  C         12.2790  -10.3480   33.0000 C.ar    1  LIG1        0.0790
      3  C         13.5910  -10.7320   33.2760 C.ar    1  LIG1        0.0380
      4  C         13.8650  -12.0380   33.6810 C.ar    1  LIG1        0.0100
      5  C         12.8270  -12.9610   33.8120 C.ar    1  LIG1       -0.0490
      6  C         11.5140  -12.5770   33.5350 C.ar    1  LIG1        0.0100
      7  C         11.2400  -11.2700   33.1300 C.ar    1  LIG1        0.0380
      8  C         13.1220  -14.3720   34.2500 C.3     1  LIG1        0.1490
      9  C         13.2170  -14.5150   35.7500 C.2     1  LIG1        0.2630
     10  O         14.0020  -13.9160   36.4720 O.2     1  LIG1       -0.2650
     11  O         12.2810  -15.4240   36.1850 O.3     1  LIG1       -0.3120
     12  C         11.4140  -15.9460   35.2000 C.3     1  LIG1        0.2810
     13  C         10.1050  -16.3580   35.8400 C.2     1  LIG1        0.2430
     14  O         10.1340  -17.1060   36.8220 O.2     1  LIG1       -0.2710
     15  N          8.9300  -15.8550   35.2810 N.am    1  LIG1       -0.3590
     16  C          8.8560  -14.9570   34.1310 C.3     1  LIG1        0.1520
     17  C          7.6460  -16.2160   35.8680 C.3     1  LIG1        0.1520
     18  C         12.3330   -8.0990   33.5510 C.2     1  LIG1        0.2980
     19  O         11.9900   -8.1030   34.7240 O.2     1  LIG1       -0.2590
     20  C         13.1520   -7.0160   32.9480 C.ar    1  LIG1        0.0400
     21  C         14.4700   -7.2670   32.5690 C.ar    1  LIG1        0.0200
     22  C         15.2380   -6.2510   32.0010 C.ar    1  LIG1        0.0330
     23  C         14.6880   -4.9830   31.8130 C.ar    1  LIG1        0.0750
     24  C         13.3700   -4.7310   32.1920 C.ar    1  LIG1        0.0330
     25  C         12.6010   -5.7480   32.7600 C.ar    1  LIG1        0.0200
     26  N         15.4590   -3.9630   31.2440 N.pl3   1  LIG1       -0.0660
     27  C         15.3830   -3.7580   29.9510 C.cat   1  LIG1        0.6920
     28  N         14.6100   -4.4460   29.0410 N.pl3   1  LIG1       -0.2330
     29  N         16.1240   -2.7660   29.3530 N.pl3   1  LIG1       -0.2330
     30  H         14.0330   -5.1830   29.3430 H       1  LIG1        0.1740
     31  H         14.6370   -4.2000   28.0870 H       1  LIG1        0.1740
     32  H         16.7190   -2.2010   29.8960 H       1  LIG1        0.1740
     33  H         16.0580   -2.6220   28.3810 H       1  LIG1        0.1740
@<TRIPOS>BOND
     1    31    28    1
     2    33    29    1
     3    28    30    1
     4    28    27    1
     5    29    32    1
     6    29    27    1
     7    27    26    2
     8    26    23    1
     9    23    22   ar
    10    23    24   ar
    11    22    21   ar
    12    24    25   ar
    13    21    20   ar
    14     1     2    1
    15     1    18    1
    16    25    20   ar
    17    20    18    1
    18     2     7   ar
    19     2     3   ar
    20     7     6   ar
    21     3     4   ar
    22     6     5   ar
    23    18    19    2
    24     4     5   ar
    25     5     8    1
    26    16    15    1
    27     8     9    1
    28    12    13    1
    29    12    11    1
    30    15    13   am
    31    15    17    1
    32     9    11    1
    33     9    10    2
    34    13    14    2
@<TRIPOS>MOLECULE
./../dock_file/temp/9f6a3161eb4a362e535671bfaeb94ee7/Camostat_Ligand_CID_2536:hmTMPRSS9:20230418095913/Camostat_Ligand_CID_2536:hmTMPRSS9_out_3.pdbqt
 33 34 0 0 0
SMALL
GASTEIGER

@<TRIPOS>ATOM
      1  O         21.6370    5.5140   31.8500 O.3     1  LIG1       -0.2750
      2  C         20.4690    5.0540   32.3750 C.ar    1  LIG1        0.0790
      3  C         20.2630    3.6820   32.5250 C.ar    1  LIG1        0.0380
      4  C         19.0660    3.2110   33.0620 C.ar    1  LIG1        0.0100
      5  C         18.0740    4.1110   33.4510 C.ar    1  LIG1       -0.0490
      6  C         18.2790    5.4830   33.3010 C.ar    1  LIG1        0.0100
      7  C         19.4770    5.9540   32.7630 C.ar    1  LIG1        0.0380
      8  C         16.7800    3.6020   34.0320 C.3     1  LIG1        0.1490
      9  C         16.9780    2.4590   35.0000 C.2     1  LIG1        0.2630
     10  O         17.5190    2.5430   36.0940 O.2     1  LIG1       -0.2650
     11  O         16.4550    1.3070   34.4630 O.3     1  LIG1       -0.3120
     12  C         15.4630    0.6560   35.2290 C.3     1  LIG1        0.2810
     13  C         14.1260    1.3340   35.0110 C.2     1  LIG1        0.2430
     14  O         13.6120    1.2860   33.8900 O.2     1  LIG1       -0.2710
     15  N         13.5420    1.9720   36.1060 N.am    1  LIG1       -0.3590
     16  C         14.1120    2.0360   37.4510 C.3     1  LIG1        0.1520
     17  C         12.2520    2.6300   35.9480 C.3     1  LIG1        0.1520
     18  C         21.9710    4.9570   30.6130 C.2     1  LIG1        0.2980
     19  O         21.2070    4.7990   29.6730 O.2     1  LIG1       -0.2590
     20  C         23.3990    4.5520   30.5760 C.ar    1  LIG1        0.0400
     21  C         24.1050    4.5930   29.3740 C.ar    1  LIG1        0.0200
     22  C         25.4460    4.2130   29.3390 C.ar    1  LIG1        0.0330
     23  C         26.0830    3.7920   30.5070 C.ar    1  LIG1        0.0750
     24  C         25.3780    3.7510   31.7100 C.ar    1  LIG1        0.0330
     25  C         24.0360    4.1310   31.7440 C.ar    1  LIG1        0.0200
     26  N         27.4280    3.4110   30.4720 N.pl3   1  LIG1       -0.0660
     27  C         27.7260    2.1530   30.2500 C.cat   1  LIG1        0.6920
     28  N         26.8470    1.1130   30.0390 N.pl3   1  LIG1       -0.2330
     29  N         29.0360    1.7380   30.2080 N.pl3   1  LIG1       -0.2330
     30  H         25.8770    1.2790   30.0450 H       1  LIG1        0.1740
     31  H         27.1900    0.2030   29.8830 H       1  LIG1        0.1740
     32  H         29.7620    2.3870   30.3440 H       1  LIG1        0.1740
     33  H         29.2460    0.7910   30.0410 H       1  LIG1        0.1740
@<TRIPOS>BOND
     1    22    21   ar
     2    22    23   ar
     3    21    20   ar
     4    19    18    2
     5    31    28    1
     6    28    30    1
     7    28    27    1
     8    33    29    1
     9    29    27    1
    10    29    32    1
    11    27    26    2
    12    26    23    1
    13    23    24   ar
    14    20    18    1
    15    20    25   ar
    16    18     1    1
    17    24    25   ar
    18     1     2    1
    19     2     3   ar
    20     2     7   ar
    21     3     4   ar
    22     7     6   ar
    23     4     5   ar
    24     6     5   ar
    25     5     8    1
    26    14    13    2
    27     8     9    1
    28    11     9    1
    29    11    12    1
    30     9    10    2
    31    13    12    1
    32    13    15   am
    33    17    15    1
    34    15    16    1
@<TRIPOS>MOLECULE
./../dock_file/temp/9f6a3161eb4a362e535671bfaeb94ee7/Camostat_Ligand_CID_2536:hmTMPRSS9:20230418095913/Camostat_Ligand_CID_2536:hmTMPRSS9_out_3.pdbqt
 33 34 0 0 0
SMALL
GASTEIGER

@<TRIPOS>ATOM
      1  O         14.2650   -9.3310   33.7840 O.3     1  LIG1       -0.2750
      2  C         13.3810  -10.3580   33.6550 C.ar    1  LIG1        0.0790
      3  C         13.7420  -11.6440   34.0560 C.ar    1  LIG1        0.0380
      4  C         12.8360  -12.6960   33.9240 C.ar    1  LIG1        0.0100
      5  C         11.5680  -12.4620   33.3920 C.ar    1  LIG1       -0.0490
      6  C         11.2070  -11.1750   32.9900 C.ar    1  LIG1        0.0100
      7  C         12.1140  -10.1230   33.1230 C.ar    1  LIG1        0.0380
      8  C         10.5880  -13.5980   33.2490 C.3     1  LIG1        0.1490
      9  C         10.2160  -14.2250   34.5720 C.2     1  LIG1        0.2630
     10  O          9.8810  -13.6130   35.5770 O.2     1  LIG1       -0.2650
     11  O         10.3100  -15.5930   34.4740 O.3     1  LIG1       -0.3120
     12  C         11.2920  -16.2100   35.2800 C.3     1  LIG1        0.2810
     13  C         10.6220  -17.0010   36.3840 C.2     1  LIG1        0.2430
     14  O          9.9610  -17.9980   36.0820 O.2     1  LIG1       -0.2710
     15  N         10.8010  -16.5540   37.6940 N.am    1  LIG1       -0.3590
     16  C         11.5880  -15.3880   38.0910 C.3     1  LIG1        0.1520
     17  C         10.1830  -17.2870   38.7910 C.3     1  LIG1        0.1520
     18  C         13.6710   -8.0860   34.0030 C.2     1  LIG1        0.2980
     19  O         12.9420   -7.7990   34.9400 O.2     1  LIG1       -0.2590
     20  C         14.0270   -7.1270   32.9260 C.ar    1  LIG1        0.0400
     21  C         13.2070   -6.0280   32.6730 C.ar    1  LIG1        0.0200
     22  C         13.5410   -5.1260   31.6620 C.ar    1  LIG1        0.0330
     23  C         14.6940   -5.3250   30.9040 C.ar    1  LIG1        0.0750
     24  C         15.5150   -6.4240   31.1570 C.ar    1  LIG1        0.0330
     25  C         15.1810   -7.3250   32.1680 C.ar    1  LIG1        0.0200
     26  N         15.0290   -4.4210   29.8900 N.pl3   1  LIG1       -0.0660
     27  C         15.8820   -3.4600   30.1530 C.cat   1  LIG1        0.6920
     28  N         16.5180   -3.2140   31.3510 N.pl3   1  LIG1       -0.2330
     29  N         16.2370   -2.5510   29.1840 N.pl3   1  LIG1       -0.2330
     30  H         16.3480   -3.7950   32.1260 H       1  LIG1        0.1740
     31  H         17.1420   -2.4560   31.4290 H       1  LIG1        0.1740
     32  H         15.8520   -2.6180   28.2820 H       1  LIG1        0.1740
     33  H         16.8790   -1.8350   29.3940 H       1  LIG1        0.1740
@<TRIPOS>BOND
     1    32    29    1
     2    29    33    1
     3    29    27    1
     4    26    27    2
     5    26    23    1
     6    27    28    1
     7    23    24   ar
     8    23    22   ar
     9    24    25   ar
    10    28    31    1
    11    28    30    1
    12    22    21   ar
    13    25    20   ar
    14    21    20   ar
    15    20    18    1
    16     6     7   ar
    17     6     5   ar
    18     7     2   ar
    19     8     5    1
    20     8     9    1
    21     5     4   ar
    22     2     1    1
    23     2     3   ar
    24     1    18    1
    25     4     3   ar
    26    18    19    2
    27    11     9    1
    28    11    12    1
    29     9    10    2
    30    12    13    1
    31    14    13    2
    32    13    15   am
    33    15    16    1
    34    15    17    1
@<TRIPOS>MOLECULE
./../dock_file/temp/9f6a3161eb4a362e535671bfaeb94ee7/Camostat_Ligand_CID_2536:hmTMPRSS9:20230418095913/Camostat_Ligand_CID_2536:hmTMPRSS9_out_3.pdbqt
 33 34 0 0 0
SMALL
GASTEIGER

@<TRIPOS>ATOM
      1  O         19.3460   -1.1190   32.9890 O.3     1  LIG1       -0.2750
      2  C         18.5770   -2.1130   32.4650 C.ar    1  LIG1        0.0790
      3  C         17.3710   -1.8040   31.8360 C.ar    1  LIG1        0.0380
      4  C         16.5840   -2.8230   31.2990 C.ar    1  LIG1        0.0100
      5  C         17.0030   -4.1500   31.3910 C.ar    1  LIG1       -0.0490
      6  C         18.2090   -4.4590   32.0210 C.ar    1  LIG1        0.0100
      7  C         18.9960   -3.4400   32.5580 C.ar    1  LIG1        0.0380
      8  C         16.1530   -5.2510   30.8110 C.3     1  LIG1        0.1490
      9  C         15.0550   -4.7350   29.9110 C.2     1  LIG1        0.2630
     10  O         15.1910   -4.4140   28.7390 O.2     1  LIG1       -0.2650
     11  O         13.8730   -4.6820   30.6120 O.3     1  LIG1       -0.3120
     12  C         13.7160   -5.6330   31.6440 C.3     1  LIG1        0.2810
     13  C         12.6500   -5.1630   32.6120 C.2     1  LIG1        0.2430
     14  O         11.4680   -5.4070   32.3560 O.2     1  LIG1       -0.2710
     15  N         13.0740   -4.4830   33.7540 N.am    1  LIG1       -0.3590
     16  C         14.4640   -4.1890   34.0980 C.3     1  LIG1        0.1520
     17  C         12.0860   -4.0190   34.7190 C.3     1  LIG1        0.1520
     18  C         19.1870   -0.9340   34.3650 C.2     1  LIG1        0.2980
     19  O         19.9170   -1.3860   35.2340 O.2     1  LIG1       -0.2590
     20  C         17.9840   -0.1140   34.6590 C.ar    1  LIG1        0.0400
     21  C         17.0140   -0.5910   35.5400 C.ar    1  LIG1        0.0200
     22  C         15.8840    0.1800   35.8170 C.ar    1  LIG1        0.0330
     23  C         15.7250    1.4270   35.2120 C.ar    1  LIG1        0.0750
     24  C         16.6950    1.9040   34.3300 C.ar    1  LIG1        0.0330
     25  C         17.8250    1.1330   34.0540 C.ar    1  LIG1        0.0200
     26  N         14.5920    2.1990   35.4890 N.pl3   1  LIG1       -0.0660
     27  C         13.5090    2.0170   34.7720 C.cat   1  LIG1        0.6920
     28  N         13.3350    1.1260   33.7360 N.pl3   1  LIG1       -0.2330
     29  N         12.3750    2.7560   35.0130 N.pl3   1  LIG1       -0.2330
     30  H         14.0750    0.5370   33.4630 H       1  LIG1        0.1740
     31  H         12.4700    1.0790   33.2670 H       1  LIG1        0.1740
     32  H         12.3690    3.4290   35.7300 H       1  LIG1        0.1740
     33  H         11.5680    2.6100   34.4680 H       1  LIG1        0.1740
@<TRIPOS>BOND
     1    10     9    2
     2     9    11    1
     3     9     8    1
     4    11    12    1
     5     8     5    1
     6     4     5   ar
     7     4     3   ar
     8     5     6   ar
     9    12    13    1
    10     3     2   ar
    11     6     7   ar
    12    14    13    2
    13     2     7   ar
    14     2     1    1
    15    13    15   am
    16     1    18    1
    17    31    28    1
    18    30    28    1
    19    28    27    1
    20    15    16    1
    21    15    17    1
    22    25    24   ar
    23    25    20   ar
    24    24    23   ar
    25    18    20    1
    26    18    19    2
    27    33    29    1
    28    20    21   ar
    29    27    29    1
    30    27    26    2
    31    29    32    1
    32    23    26    1
    33    23    22   ar
    34    21    22   ar
