@<TRIPOS>MOLECULE
./../dock_file/temp/9f6a3161eb4a362e535671bfaeb94ee7/Camostat_Ligand_CID_2536:hmTMPRSS9:20230418095913/Camostat_Ligand_CID_2536:hmTMPRSS9_out_5.pdbqt
 33 34 0 0 0
SMALL
GASTEIGER

@<TRIPOS>ATOM
      1  O         21.6900  -16.5070   10.2340 O.3     1  LIG1       -0.2750
      2  C         21.6640  -15.1480   10.3100 C.ar    1  LIG1        0.0790
      3  C         22.0020  -14.5090   11.5030 C.ar    1  LIG1        0.0380
      4  C         21.9760  -13.1180   11.5800 C.ar    1  LIG1        0.0100
      5  C         21.6120  -12.3630   10.4640 C.ar    1  LIG1       -0.0490
      6  C         21.2740  -13.0020    9.2710 C.ar    1  LIG1        0.0100
      7  C         21.3010  -14.3950    9.1940 C.ar    1  LIG1        0.0380
      8  C         21.5830  -10.8590   10.5480 C.3     1  LIG1        0.1490
      9  C         21.9680  -10.1900    9.2490 C.2     1  LIG1        0.2630
     10  O         23.0140  -10.3700    8.6410 O.2     1  LIG1       -0.2650
     11  O         20.9590   -9.3440    8.8530 O.3     1  LIG1       -0.3120
     12  C         20.7150   -9.2720    7.4640 C.3     1  LIG1        0.2810
     13  C         19.4610  -10.0510    7.1260 C.2     1  LIG1        0.2430
     14  O         18.3740   -9.6320    7.5350 O.2     1  LIG1       -0.2710
     15  N         19.6090  -11.2050    6.3560 N.am    1  LIG1       -0.3590
     16  C         20.8750  -11.7240    5.8430 C.3     1  LIG1        0.1520
     17  C         18.4300  -11.9830    5.9990 C.3     1  LIG1        0.1520
     18  C         20.7700  -17.0500    9.3340 C.2     1  LIG1        0.2980
     19  O         20.9780  -17.2770    8.1510 O.2     1  LIG1       -0.2590
     20  C         19.4660  -17.3120    9.9950 C.ar    1  LIG1        0.0400
     21  C         19.4290  -17.7160   11.3290 C.ar    1  LIG1        0.0200
     22  C         18.2050  -17.9620   11.9500 C.ar    1  LIG1        0.0330
     23  C         17.0170  -17.8060   11.2360 C.ar    1  LIG1        0.0750
     24  C         17.0530  -17.4020    9.9010 C.ar    1  LIG1        0.0330
     25  C         18.2780  -17.1560    9.2800 C.ar    1  LIG1        0.0200
     26  N         15.7890  -18.0530   11.8590 N.pl3   1  LIG1       -0.0660
     27  C         15.0650  -17.0350   12.2590 C.cat   1  LIG1        0.6920
     28  N         15.3700  -15.6960   12.1410 N.pl3   1  LIG1       -0.2330
     29  N         13.8520  -17.2350   12.8750 N.pl3   1  LIG1       -0.2330
     30  H         16.2140  -15.4190   11.7180 H       1  LIG1        0.1740
     31  H         14.7440  -15.0170   12.4830 H       1  LIG1        0.1740
     32  H         13.5180  -18.1490   13.0190 H       1  LIG1        0.1740
     33  H         13.3180  -16.4620   13.1710 H       1  LIG1        0.1740
@<TRIPOS>BOND
     1    16    15    1
     2    17    15    1
     3    15    13   am
     4    13    12    1
     5    13    14    2
     6    12    11    1
     7    19    18    2
     8    10     9    2
     9    11     9    1
    10     7     6   ar
    11     7     2   ar
    12     9     8    1
    13     6     5   ar
    14    25    24   ar
    15    25    20   ar
    16    18    20    1
    17    18     1    1
    18    24    23   ar
    19    20    21   ar
    20     1     2    1
    21     2     3   ar
    22     5     8    1
    23     5     4   ar
    24    23    26    1
    25    23    22   ar
    26    21    22   ar
    27     3     4   ar
    28    30    28    1
    29    26    27    2
    30    28    27    1
    31    28    31    1
    32    27    29    1
    33    29    32    1
    34    29    33    1
@<TRIPOS>MOLECULE
./../dock_file/temp/9f6a3161eb4a362e535671bfaeb94ee7/Camostat_Ligand_CID_2536:hmTMPRSS9:20230418095913/Camostat_Ligand_CID_2536:hmTMPRSS9_out_5.pdbqt
 33 34 0 0 0
SMALL
GASTEIGER

@<TRIPOS>ATOM
      1  O         21.6810  -16.0280   10.2740 O.3     1  LIG1       -0.2750
      2  C         21.7290  -14.6770   10.1100 C.ar    1  LIG1        0.0790
      3  C         21.7360  -14.1300    8.8270 C.ar    1  LIG1        0.0380
      4  C         21.7850  -12.7470    8.6590 C.ar    1  LIG1        0.0100
      5  C         21.8260  -11.9100    9.7740 C.ar    1  LIG1       -0.0490
      6  C         21.8190  -12.4570   11.0570 C.ar    1  LIG1        0.0100
      7  C         21.7700  -13.8410   11.2250 C.ar    1  LIG1        0.0380
      8  C         21.8790  -10.4150    9.5930 C.3     1  LIG1        0.1490
      9  C         20.5500   -9.8230    9.1850 C.2     1  LIG1        0.2630
     10  O         19.7330  -10.3570    8.4460 O.2     1  LIG1       -0.2650
     11  O         20.3960   -8.5900    9.7720 O.3     1  LIG1       -0.3120
     12  C         21.3170   -7.5930    9.3810 C.3     1  LIG1        0.2810
     13  C         20.8190   -6.2360    9.8310 C.2     1  LIG1        0.2430
     14  O         19.7940   -6.1760   10.5160 O.2     1  LIG1       -0.2710
     15  N         21.5640   -5.1190    9.4480 N.am    1  LIG1       -0.3590
     16  C         22.7880   -5.1500    8.6520 C.3     1  LIG1        0.1520
     17  C         21.1300   -3.7920    9.8650 C.3     1  LIG1        0.1520
     18  C         20.9170  -16.6970    9.3150 C.2     1  LIG1        0.2980
     19  O         21.2630  -16.9350    8.1680 O.2     1  LIG1       -0.2590
     20  C         19.5910  -17.0820    9.8610 C.ar    1  LIG1        0.0400
     21  C         18.4480  -16.9540    9.0720 C.ar    1  LIG1        0.0200
     22  C         17.2020  -17.3170    9.5850 C.ar    1  LIG1        0.0330
     23  C         17.0990  -17.8080   10.8860 C.ar    1  LIG1        0.0750
     24  C         18.2420  -17.9360   11.6760 C.ar    1  LIG1        0.0330
     25  C         19.4880  -17.5730   11.1630 C.ar    1  LIG1        0.0200
     26  N         15.8500  -18.1710   11.4000 N.pl3   1  LIG1       -0.0660
     27  C         15.0890  -17.2450   11.9310 C.cat   1  LIG1        0.6920
     28  N         15.3720  -15.9010   12.0540 N.pl3   1  LIG1       -0.2330
     29  N         13.8540  -17.5610   12.4470 N.pl3   1  LIG1       -0.2330
     30  H         16.2270  -15.5460   11.7230 H       1  LIG1        0.1740
     31  H         14.7170  -15.2980   12.4750 H       1  LIG1        0.1740
     32  H         13.5330  -18.4900   12.4200 H       1  LIG1        0.1740
     33  H         13.2920  -16.8560   12.8430 H       1  LIG1        0.1740
@<TRIPOS>BOND
     1    19    18    2
     2    10     9    2
     3    16    15    1
     4     4     3   ar
     5     4     5   ar
     6     3     2   ar
     7    21    22   ar
     8    21    20   ar
     9     9     8    1
    10     9    11    1
    11    18    20    1
    12    18     1    1
    13    12    11    1
    14    12    13    1
    15    15    13   am
    16    15    17    1
    17    22    23   ar
    18     8     5    1
    19     5     6   ar
    20    13    14    2
    21    20    25   ar
    22     2     1    1
    23     2     7   ar
    24    23    26    1
    25    23    24   ar
    26     6     7   ar
    27    25    24   ar
    28    26    27    2
    29    30    28    1
    30    27    28    1
    31    27    29    1
    32    28    31    1
    33    32    29    1
    34    29    33    1
@<TRIPOS>MOLECULE
./../dock_file/temp/9f6a3161eb4a362e535671bfaeb94ee7/Camostat_Ligand_CID_2536:hmTMPRSS9:20230418095913/Camostat_Ligand_CID_2536:hmTMPRSS9_out_5.pdbqt
 33 34 0 0 0
SMALL
GASTEIGER

@<TRIPOS>ATOM
      1  O         21.6490  -16.7220   10.0280 O.3     1  LIG1       -0.2750
      2  C         21.6530  -15.3780   10.2440 C.ar    1  LIG1        0.0790
      3  C         21.9740  -14.8740   11.5050 C.ar    1  LIG1        0.0380
      4  C         21.9770  -13.4970   11.7250 C.ar    1  LIG1        0.0100
      5  C         21.6610  -12.6230   10.6840 C.ar    1  LIG1       -0.0490
      6  C         21.3410  -13.1270    9.4240 C.ar    1  LIG1        0.0100
      7  C         21.3370  -14.5050    9.2030 C.ar    1  LIG1        0.0380
      8  C         21.6650  -11.1350   10.9220 C.3     1  LIG1        0.1490
      9  C         21.3850  -10.3380    9.6700 C.2     1  LIG1        0.2630
     10  O         20.2780  -10.1420    9.1880 O.2     1  LIG1       -0.2650
     11  O         22.5670   -9.8630    9.1530 O.3     1  LIG1       -0.3120
     12  C         22.8910   -8.5240    9.4630 C.3     1  LIG1        0.2810
     13  C         22.3570   -7.6080    8.3810 C.2     1  LIG1        0.2430
     14  O         22.7750   -7.7450    7.2280 O.2     1  LIG1       -0.2710
     15  N         21.4060   -6.6580    8.7560 N.am    1  LIG1       -0.3590
     16  C         20.8760   -6.4760   10.1050 C.3     1  LIG1        0.1520
     17  C         20.8570   -5.7600    7.7480 C.3     1  LIG1        0.1520
     18  C         20.6280  -17.1660    9.1850 C.2     1  LIG1        0.2980
     19  O         20.7260  -17.3470    7.9810 O.2     1  LIG1       -0.2590
     20  C         19.3670  -17.3830    9.9390 C.ar    1  LIG1        0.0400
     21  C         19.4130  -17.7350   11.2880 C.ar    1  LIG1        0.0200
     22  C         18.2290  -17.9390   11.9960 C.ar    1  LIG1        0.0330
     23  C         16.9990  -17.7910   11.3560 C.ar    1  LIG1        0.0750
     24  C         16.9520  -17.4380   10.0070 C.ar    1  LIG1        0.0330
     25  C         18.1370  -17.2350    9.2990 C.ar    1  LIG1        0.0200
     26  N         15.8110  -17.9950   12.0670 N.pl3   1  LIG1       -0.0660
     27  C         15.1010  -16.9530   12.4260 C.cat   1  LIG1        0.6920
     28  N         15.3840  -15.6260   12.1850 N.pl3   1  LIG1       -0.2330
     29  N         13.9270  -17.1100   13.1260 N.pl3   1  LIG1       -0.2330
     30  H         16.1990  -15.3780   11.6920 H       1  LIG1        0.1740
     31  H         14.7710  -14.9260   12.5070 H       1  LIG1        0.1740
     32  H         13.6120  -18.0120   13.3610 H       1  LIG1        0.1740
     33  H         13.4020  -16.3200   13.3900 H       1  LIG1        0.1740
@<TRIPOS>BOND
     1    14    13    2
     2    17    15    1
     3    19    18    2
     4    13    15   am
     5    13    12    1
     6    15    16    1
     7    11    12    1
     8    11     9    1
     9    18    20    1
    10    18     1    1
    11    10     9    2
    12     7     6   ar
    13     7     2   ar
    14    25    20   ar
    15    25    24   ar
    16     6     5   ar
    17     9     8    1
    18    20    21   ar
    19    24    23   ar
    20     1     2    1
    21     2     3   ar
    22     5     8    1
    23     5     4   ar
    24    21    22   ar
    25    23    22   ar
    26    23    26    1
    27     3     4   ar
    28    30    28    1
    29    26    27    2
    30    28    27    1
    31    28    31    1
    32    27    29    1
    33    29    32    1
    34    29    33    1
@<TRIPOS>MOLECULE
./../dock_file/temp/9f6a3161eb4a362e535671bfaeb94ee7/Camostat_Ligand_CID_2536:hmTMPRSS9:20230418095913/Camostat_Ligand_CID_2536:hmTMPRSS9_out_5.pdbqt
 33 34 0 0 0
SMALL
GASTEIGER

@<TRIPOS>ATOM
      1  O         12.4120  -17.7790   12.1550 O.3     1  LIG1       -0.2750
      2  C         13.7700  -17.7890   12.2340 C.ar    1  LIG1        0.0790
      3  C         14.4800  -16.5880   12.2110 C.ar    1  LIG1        0.0380
      4  C         15.8720  -16.5990   12.2910 C.ar    1  LIG1        0.0100
      5  C         16.5550  -17.8100   12.3970 C.ar    1  LIG1       -0.0490
      6  C         15.8460  -19.0110   12.4210 C.ar    1  LIG1        0.0100
      7  C         14.4530  -19.0000   12.3400 C.ar    1  LIG1        0.0380
      8  C         18.0590  -17.8220   12.4850 C.3     1  LIG1        0.1490
      9  C         18.7150  -18.4360   11.2700 C.2     1  LIG1        0.2630
     10  O         19.3980  -19.4510   11.2700 O.2     1  LIG1       -0.2650
     11  O         18.4260  -17.6780   10.1600 O.3     1  LIG1       -0.3120
     12  C         18.1440  -18.3900    8.9740 C.3     1  LIG1        0.2810
     13  C         16.6820  -18.7820    8.9510 C.2     1  LIG1        0.2430
     14  O         15.8290  -17.8910    8.9130 O.2     1  LIG1       -0.2710
     15  N         16.3820  -20.1450    8.9640 N.am    1  LIG1       -0.3590
     16  C         17.3620  -21.2280    8.9930 C.3     1  LIG1        0.1520
     17  C         14.9880  -20.5710    8.9340 C.3     1  LIG1        0.1520
     18  C         11.8940  -18.4800   11.0640 C.2     1  LIG1        0.2980
     19  O         12.3040  -18.4140    9.9150 O.2     1  LIG1       -0.2590
     20  C         10.7440  -19.3280   11.4690 C.ar    1  LIG1        0.0400
     21  C         10.0270  -20.0370   10.5050 C.ar    1  LIG1        0.0200
     22  C          8.9470  -20.8340   10.8860 C.ar    1  LIG1        0.0330
     23  C          8.5840  -20.9220   12.2290 C.ar    1  LIG1        0.0750
     24  C          9.3020  -20.2130   13.1940 C.ar    1  LIG1        0.0330
     25  C         10.3810  -19.4160   12.8130 C.ar    1  LIG1        0.0200
     26  N          7.5010  -21.7210   12.6110 N.pl3   1  LIG1       -0.0660
     27  C          7.7330  -22.9330   13.0560 C.cat   1  LIG1        0.6920
     28  N          8.9580  -23.5470   13.2030 N.pl3   1  LIG1       -0.2330
     29  N          6.6970  -23.7500   13.4410 N.pl3   1  LIG1       -0.2330
     30  H          9.7820  -23.0670   12.9610 H       1  LIG1        0.1740
     31  H          9.0080  -24.4680   13.5490 H       1  LIG1        0.1740
     32  H          5.7690  -23.4270   13.3850 H       1  LIG1        0.1740
     33  H          6.8840  -24.6570   13.7740 H       1  LIG1        0.1740
@<TRIPOS>BOND
     1    14    13    2
     2    17    15    1
     3    13    15   am
     4    13    12    1
     5    15    16    1
     6    12    11    1
     7    19    18    2
     8    11     9    1
     9    21    22   ar
    10    21    20   ar
    11    22    23   ar
    12    18    20    1
    13    18     1    1
    14    10     9    2
    15     9     8    1
    16    20    25   ar
    17     1     2    1
    18     3     2   ar
    19     3     4   ar
    20    23    26    1
    21    23    24   ar
    22     2     7   ar
    23     4     5   ar
    24     7     6   ar
    25     5     6   ar
    26     5     8    1
    27    26    27    2
    28    25    24   ar
    29    30    28    1
    30    27    28    1
    31    27    29    1
    32    28    31    1
    33    32    29    1
    34    29    33    1
@<TRIPOS>MOLECULE
./../dock_file/temp/9f6a3161eb4a362e535671bfaeb94ee7/Camostat_Ligand_CID_2536:hmTMPRSS9:20230418095913/Camostat_Ligand_CID_2536:hmTMPRSS9_out_5.pdbqt
 33 34 0 0 0
SMALL
GASTEIGER

@<TRIPOS>ATOM
      1  O         21.5590  -15.4480    8.5550 O.3     1  LIG1       -0.2750
      2  C         20.5460  -16.1850    9.0870 C.ar    1  LIG1        0.0790
      3  C         20.7430  -16.8880   10.2760 C.ar    1  LIG1        0.0380
      4  C         19.7040  -17.6420   10.8200 C.ar    1  LIG1        0.0100
      5  C         18.4670  -17.6930   10.1770 C.ar    1  LIG1       -0.0490
      6  C         18.2710  -16.9900    8.9880 C.ar    1  LIG1        0.0100
      7  C         19.3100  -16.2360    8.4430 C.ar    1  LIG1        0.0380
      8  C         17.3450  -18.5080   10.7650 C.3     1  LIG1        0.1490
      9  C         16.6560  -17.8160   11.9180 C.2     1  LIG1        0.2630
     10  O         17.1300  -17.6550   13.0340 O.2     1  LIG1       -0.2650
     11  O         15.4100  -17.3920   11.5200 O.3     1  LIG1       -0.3120
     12  C         14.4090  -17.3750   12.5160 C.3     1  LIG1        0.2810
     13  C         13.0500  -17.5590   11.8740 C.2     1  LIG1        0.2430
     14  O         12.4180  -16.5590   11.5240 O.2     1  LIG1       -0.2710
     15  N         12.5900  -18.8660   11.7070 N.am    1  LIG1       -0.3590
     16  C         13.3140  -20.0750   12.0940 C.3     1  LIG1        0.1520
     17  C         11.2910  -19.0950   11.0870 C.3     1  LIG1        0.1520
     18  C         22.2740  -14.6940    9.4890 C.2     1  LIG1        0.2980
     19  O         23.1700  -15.1120   10.2070 O.2     1  LIG1       -0.2590
     20  C         21.7940  -13.2890    9.5220 C.ar    1  LIG1        0.0400
     21  C         21.2340  -12.7170    8.3810 C.ar    1  LIG1        0.0200
     22  C         20.7830  -11.3970    8.4130 C.ar    1  LIG1        0.0330
     23  C         20.8930  -10.6500    9.5850 C.ar    1  LIG1        0.0750
     24  C         21.4540  -11.2220   10.7270 C.ar    1  LIG1        0.0330
     25  C         21.9050  -12.5420   10.6960 C.ar    1  LIG1        0.0200
     26  N         20.4410   -9.3260    9.6160 N.pl3   1  LIG1       -0.0660
     27  C         21.2810   -8.3620    9.3230 C.cat   1  LIG1        0.6920
     28  N         22.6080   -8.4890    8.9730 N.pl3   1  LIG1       -0.2330
     29  N         20.8760   -7.0480    9.3420 N.pl3   1  LIG1       -0.2330
     30  H         23.0200   -9.3810    8.9240 H       1  LIG1        0.1740
     31  H         23.1430   -7.6860    8.7740 H       1  LIG1        0.1740
     32  H         19.9470   -6.8230    9.5770 H       1  LIG1        0.1740
     33  H         21.5160   -6.3340    9.1200 H       1  LIG1        0.1740
@<TRIPOS>BOND
     1    21    22   ar
     2    21    20   ar
     3    22    23   ar
     4     7     6   ar
     5     7     2   ar
     6     1     2    1
     7     1    18    1
     8    31    28    1
     9    30    28    1
    10    28    27    1
    11     6     5   ar
    12     2     3   ar
    13    33    29    1
    14    27    29    1
    15    27    26    2
    16    29    32    1
    17    18    20    1
    18    18    19    2
    19    20    25   ar
    20    23    26    1
    21    23    24   ar
    22     5     8    1
    23     5     4   ar
    24     3     4   ar
    25    25    24   ar
    26     8     9    1
    27    17    15    1
    28    11     9    1
    29    11    12    1
    30    14    13    2
    31    15    13   am
    32    15    16    1
    33    13    12    1
    34     9    10    2
@<TRIPOS>MOLECULE
./../dock_file/temp/9f6a3161eb4a362e535671bfaeb94ee7/Camostat_Ligand_CID_2536:hmTMPRSS9:20230418095913/Camostat_Ligand_CID_2536:hmTMPRSS9_out_5.pdbqt
 33 34 0 0 0
SMALL
GASTEIGER

@<TRIPOS>ATOM
      1  O         12.4550  -17.8420   12.0980 O.3     1  LIG1       -0.2750
      2  C         13.8110  -17.8400   12.2090 C.ar    1  LIG1        0.0790
      3  C         14.5060  -19.0460   12.3010 C.ar    1  LIG1        0.0380
      4  C         15.8960  -19.0430   12.4140 C.ar    1  LIG1        0.0100
      5  C         16.5920  -17.8340   12.4360 C.ar    1  LIG1       -0.0490
      6  C         15.8970  -16.6280   12.3440 C.ar    1  LIG1        0.0100
      7  C         14.5060  -16.6310   12.2300 C.ar    1  LIG1        0.0380
      8  C         18.0940  -17.8310   12.5590 C.3     1  LIG1        0.1490
      9  C         18.7450  -19.0000   11.8570 C.2     1  LIG1        0.2630
     10  O         19.2210  -19.9820   12.4100 O.2     1  LIG1       -0.2650
     11  O         18.7190  -18.7920   10.4990 O.3     1  LIG1       -0.3120
     12  C         19.2950  -17.5870   10.0410 C.3     1  LIG1        0.2810
     13  C         18.4860  -17.0450    8.8810 C.2     1  LIG1        0.2430
     14  O         17.3160  -16.7060    9.0800 O.2     1  LIG1       -0.2710
     15  N         19.1220  -16.9510    7.6420 N.am    1  LIG1       -0.3590
     16  C         20.5080  -17.3270    7.3710 C.3     1  LIG1        0.1520
     17  C         18.3870  -16.4270    6.4980 C.3     1  LIG1        0.1520
     18  C         11.9600  -18.6990   11.1110 C.2     1  LIG1        0.2980
     19  O         12.1960  -18.6200    9.9150 O.2     1  LIG1       -0.2590
     20  C         11.0760  -19.7380   11.6980 C.ar    1  LIG1        0.0400
     21  C         11.2060  -21.0680   11.3020 C.ar    1  LIG1        0.0200
     22  C         10.3760  -22.0440   11.8540 C.ar    1  LIG1        0.0330
     23  C          9.4160  -21.6890   12.8020 C.ar    1  LIG1        0.0750
     24  C          9.2860  -20.3580   13.1980 C.ar    1  LIG1        0.0330
     25  C         10.1160  -19.3820   12.6460 C.ar    1  LIG1        0.0200
     26  N          8.5830  -22.6680   13.3550 N.pl3   1  LIG1       -0.0660
     27  C          7.3660  -22.8030   12.8870 C.cat   1  LIG1        0.6920
     28  N          6.7740  -22.0750   11.8770 N.pl3   1  LIG1       -0.2330
     29  N          6.5160  -23.7530   13.4030 N.pl3   1  LIG1       -0.2330
     30  H          7.2780  -21.3620   11.4240 H       1  LIG1        0.1740
     31  H          5.8460  -22.2680   11.6100 H       1  LIG1        0.1740
     32  H          6.8200  -24.3410   14.1310 H       1  LIG1        0.1740
     33  H          5.6040  -23.8450   13.0430 H       1  LIG1        0.1740
@<TRIPOS>BOND
     1    17    15    1
     2    16    15    1
     3    15    13   am
     4    13    14    2
     5    13    12    1
     6    19    18    2
     7    12    11    1
     8    11     9    1
     9    18    20    1
    10    18     1    1
    11    21    20   ar
    12    21    22   ar
    13    30    28    1
    14    31    28    1
    15    20    25   ar
    16    22    23   ar
    17     9    10    2
    18     9     8    1
    19    28    27    1
    20     1     2    1
    21     2     7   ar
    22     2     3   ar
    23     7     6   ar
    24     3     4   ar
    25     6     5   ar
    26     4     5   ar
    27     5     8    1
    28    25    24   ar
    29    23    24   ar
    30    23    26    1
    31    27    26    2
    32    27    29    1
    33    33    29    1
    34    29    32    1
@<TRIPOS>MOLECULE
./../dock_file/temp/9f6a3161eb4a362e535671bfaeb94ee7/Camostat_Ligand_CID_2536:hmTMPRSS9:20230418095913/Camostat_Ligand_CID_2536:hmTMPRSS9_out_5.pdbqt
 33 34 0 0 0
SMALL
GASTEIGER

@<TRIPOS>ATOM
      1  O         10.6350  -18.8050   11.2070 O.3     1  LIG1       -0.2750
      2  C         11.8550  -18.4750   11.7120 C.ar    1  LIG1        0.0790
      3  C         12.1350  -17.1520   12.0530 C.ar    1  LIG1        0.0380
      4  C         13.3850  -16.8150   12.5700 C.ar    1  LIG1        0.0100
      5  C         14.3560  -17.8000   12.7480 C.ar    1  LIG1       -0.0490
      6  C         14.0760  -19.1240   12.4070 C.ar    1  LIG1        0.0100
      7  C         12.8260  -19.4610   11.8890 C.ar    1  LIG1        0.0380
      8  C         15.7070  -17.4360   13.3070 C.3     1  LIG1        0.1490
      9  C         16.8140  -17.5350   12.2840 C.2     1  LIG1        0.2630
     10  O         16.6850  -17.3570   11.0810 O.2     1  LIG1       -0.2650
     11  O         17.9940  -17.8550   12.9130 O.3     1  LIG1       -0.3120
     12  C         19.1270  -17.9930   12.0820 C.3     1  LIG1        0.2810
     13  C         19.3400  -19.4550   11.7500 C.2     1  LIG1        0.2430
     14  O         19.3840  -20.2730   12.6730 O.2     1  LIG1       -0.2710
     15  N         19.4660  -19.7970   10.4030 N.am    1  LIG1       -0.3590
     16  C         19.4050  -18.8600    9.2830 C.3     1  LIG1        0.1520
     17  C         19.6640  -21.1920   10.0340 C.3     1  LIG1        0.1520
     18  C          9.7960  -19.4570   12.1130 C.2     1  LIG1        0.2980
     19  O          9.8460  -19.3580   13.3290 O.2     1  LIG1       -0.2590
     20  C          8.8170  -20.3230   11.4080 C.ar    1  LIG1        0.0400
     21  C          8.5900  -20.1510   10.0430 C.ar    1  LIG1        0.0200
     22  C          7.6710  -20.9650    9.3800 C.ar    1  LIG1        0.0330
     23  C          6.9780  -21.9500   10.0830 C.ar    1  LIG1        0.0750
     24  C          7.2050  -22.1230   11.4480 C.ar    1  LIG1        0.0330
     25  C          8.1240  -21.3090   12.1110 C.ar    1  LIG1        0.0200
     26  N          6.0560  -22.7660    9.4180 N.pl3   1  LIG1       -0.0660
     27  C          4.8030  -22.3850    9.3540 C.cat   1  LIG1        0.6920
     28  N          4.2530  -21.2360    9.8790 N.pl3   1  LIG1       -0.2330
     29  N          3.8660  -23.1580    8.7100 N.pl3   1  LIG1       -0.2330
     30  H          4.8200  -20.5960   10.3660 H       1  LIG1        0.1740
     31  H          3.2910  -21.0560    9.7670 H       1  LIG1        0.1740
     32  H          4.1330  -24.0070    8.2900 H       1  LIG1        0.1740
     33  H          2.9280  -22.8610    8.6680 H       1  LIG1        0.1740
@<TRIPOS>BOND
     1    32    29    1
     2    33    29    1
     3    29    27    1
     4    16    15    1
     5    27    26    2
     6    27    28    1
     7    22    21   ar
     8    22    23   ar
     9    26    23    1
    10    31    28    1
    11    28    30    1
    12    17    15    1
    13    21    20   ar
    14    23    24   ar
    15    15    13   am
    16    10     9    2
    17     1     2    1
    18     1    18    1
    19    20    25   ar
    20    20    18    1
    21    24    25   ar
    22     2     7   ar
    23     2     3   ar
    24    13    12    1
    25    13    14    2
    26     7     6   ar
    27     3     4   ar
    28    12    11    1
    29    18    19    2
    30     9    11    1
    31     9     8    1
    32     6     5   ar
    33     4     5   ar
    34     5     8    1
@<TRIPOS>MOLECULE
./../dock_file/temp/9f6a3161eb4a362e535671bfaeb94ee7/Camostat_Ligand_CID_2536:hmTMPRSS9:20230418095913/Camostat_Ligand_CID_2536:hmTMPRSS9_out_5.pdbqt
 33 34 0 0 0
SMALL
GASTEIGER

@<TRIPOS>ATOM
      1  O         22.9020  -14.6570    8.1980 O.3     1  LIG1       -0.2750
      2  C         21.7590  -15.3160    8.5330 C.ar    1  LIG1        0.0790
      3  C         21.7110  -16.0790    9.7000 C.ar    1  LIG1        0.0380
      4  C         20.5400  -16.7550   10.0430 C.ar    1  LIG1        0.0100
      5  C         19.4170  -16.6670    9.2210 C.ar    1  LIG1       -0.0490
      6  C         19.4660  -15.9040    8.0540 C.ar    1  LIG1        0.0100
      7  C         20.6370  -15.2280    7.7100 C.ar    1  LIG1        0.0380
      8  C         18.1520  -17.3970    9.5910 C.3     1  LIG1        0.1490
      9  C         18.4110  -18.7710   10.1630 C.2     1  LIG1        0.2630
     10  O         18.7950  -19.7420    9.5270 O.2     1  LIG1       -0.2650
     11  O         18.1490  -18.7630   11.5130 O.3     1  LIG1       -0.3120
     12  C         16.9020  -19.2930   11.9100 C.3     1  LIG1        0.2810
     13  C         16.0020  -18.1730   12.3890 C.2     1  LIG1        0.2430
     14  O         16.3190  -17.5510   13.4070 O.2     1  LIG1       -0.2710
     15  N         14.8590  -17.9010   11.6360 N.am    1  LIG1       -0.3590
     16  C         14.4580  -18.6030   10.4190 C.3     1  LIG1        0.1520
     17  C         13.9660  -16.8260   12.0530 C.3     1  LIG1        0.1520
     18  C         23.3830  -13.8000    9.1910 C.2     1  LIG1        0.2980
     19  O         24.3050  -14.0420    9.9550 O.2     1  LIG1       -0.2590
     20  C         22.6130  -12.5300    9.2220 C.ar    1  LIG1        0.0400
     21  C         22.5020  -11.7540    8.0700 C.ar    1  LIG1        0.0200
     22  C         21.7790  -10.5610    8.0990 C.ar    1  LIG1        0.0330
     23  C         21.1670  -10.1460    9.2810 C.ar    1  LIG1        0.0750
     24  C         21.2780  -10.9220   10.4350 C.ar    1  LIG1        0.0330
     25  C         22.0010  -12.1150   10.4050 C.ar    1  LIG1        0.0200
     26  N         20.4410   -8.9500    9.3110 N.pl3   1  LIG1       -0.0660
     27  C         21.0850   -7.8220    9.4900 C.cat   1  LIG1        0.6920
     28  N         22.4430   -7.6540    9.6610 N.pl3   1  LIG1       -0.2330
     29  N         20.4090   -6.6250    9.5250 N.pl3   1  LIG1       -0.2330
     30  H         23.0400   -8.4360    9.6570 H       1  LIG1        0.1740
     31  H         22.8140   -6.7500    9.7890 H       1  LIG1        0.1740
     32  H         19.4320   -6.6080    9.4150 H       1  LIG1        0.1740
     33  H         20.9040   -5.7840    9.6600 H       1  LIG1        0.1740
@<TRIPOS>BOND
     1     7     6   ar
     2     7     2   ar
     3     6     5   ar
     4    21    22   ar
     5    21    20   ar
     6    22    23   ar
     7     1     2    1
     8     1    18    1
     9     2     3   ar
    10    18    20    1
    11    18    19    2
    12     5     8    1
    13     5     4   ar
    14    20    25   ar
    15    23    26    1
    16    23    24   ar
    17    26    27    2
    18    32    29    1
    19    27    29    1
    20    27    28    1
    21    29    33    1
    22    10     9    2
    23     8     9    1
    24    30    28    1
    25    28    31    1
    26     3     4   ar
    27     9    11    1
    28    25    24   ar
    29    16    15    1
    30    11    12    1
    31    15    17    1
    32    15    13   am
    33    12    13    1
    34    13    14    2
@<TRIPOS>MOLECULE
./../dock_file/temp/9f6a3161eb4a362e535671bfaeb94ee7/Camostat_Ligand_CID_2536:hmTMPRSS9:20230418095913/Camostat_Ligand_CID_2536:hmTMPRSS9_out_5.pdbqt
 33 34 0 0 0
SMALL
GASTEIGER

@<TRIPOS>ATOM
      1  O          3.5160  -11.4960    2.6080 O.3     1  LIG1       -0.2750
      2  C          4.0820  -12.3250    3.5260 C.ar    1  LIG1        0.0790
      3  C          4.5210  -13.5930    3.1450 C.ar    1  LIG1        0.0380
      4  C          5.1010  -14.4420    4.0870 C.ar    1  LIG1        0.0100
      5  C          5.2440  -14.0240    5.4100 C.ar    1  LIG1       -0.0490
      6  C          4.8040  -12.7560    5.7910 C.ar    1  LIG1        0.0100
      7  C          4.2240  -11.9060    4.8490 C.ar    1  LIG1        0.0380
      8  C          5.8700  -14.9410    6.4280 C.3     1  LIG1        0.1490
      9  C          7.2180  -15.4680    5.9940 C.2     1  LIG1        0.2630
     10  O          7.4760  -16.6380    5.7470 O.2     1  LIG1       -0.2650
     11  O          8.1150  -14.4290    5.9190 O.3     1  LIG1       -0.3120
     12  C          9.2420  -14.6360    5.0940 C.3     1  LIG1        0.2810
     13  C          9.3300  -13.5290    4.0640 C.2     1  LIG1        0.2430
     14  O          8.4030  -13.3910    3.2610 O.2     1  LIG1       -0.2710
     15  N         10.4630  -12.7150    4.0900 N.am    1  LIG1       -0.3590
     16  C         11.5720  -12.8370    5.0340 C.3     1  LIG1        0.1520
     17  C         10.5880  -11.6310    3.1240 C.3     1  LIG1        0.1520
     18  C          4.3950  -11.0480    1.6190 C.2     1  LIG1        0.2980
     19  O          4.3890  -11.3980    0.4480 O.2     1  LIG1       -0.2590
     20  C          5.3770  -10.0820    2.1730 C.ar    1  LIG1        0.0400
     21  C          6.7400  -10.3690    2.1270 C.ar    1  LIG1        0.0200
     22  C          7.6630   -9.4620    2.6470 C.ar    1  LIG1        0.0330
     23  C          7.2220   -8.2660    3.2140 C.ar    1  LIG1        0.0750
     24  C          5.8570   -7.9780    3.2610 C.ar    1  LIG1        0.0330
     25  C          4.9350   -8.8860    2.7410 C.ar    1  LIG1        0.0200
     26  N          8.1470   -7.3560    3.7360 N.pl3   1  LIG1       -0.0660
     27  C          8.5640   -7.5130    4.9690 C.cat   1  LIG1        0.6920
     28  N          8.1940   -8.5010    5.8560 N.pl3   1  LIG1       -0.2330
     29  N          9.4730   -6.6410    5.5200 N.pl3   1  LIG1       -0.2330
     30  H          7.5470   -9.1900    5.5840 H       1  LIG1        0.1740
     31  H          8.5770   -8.5160    6.7640 H       1  LIG1        0.1740
     32  H          9.8180   -5.8890    4.9870 H       1  LIG1        0.1740
     33  H          9.7800   -6.7700    6.4470 H       1  LIG1        0.1740
@<TRIPOS>BOND
     1    19    18    2
     2    18    20    1
     3    18     1    1
     4    21    20   ar
     5    21    22   ar
     6    20    25   ar
     7     1     2    1
     8    22    23   ar
     9    25    24   ar
    10    17    15    1
    11     3     2   ar
    12     3     4   ar
    13    23    24   ar
    14    23    26    1
    15    14    13    2
    16     2     7   ar
    17    26    27    2
    18    13    15   am
    19    13    12    1
    20     4     5   ar
    21    15    16    1
    22     7     6   ar
    23    27    29    1
    24    27    28    1
    25    32    29    1
    26    12    11    1
    27     5     6   ar
    28     5     8    1
    29    29    33    1
    30    30    28    1
    31    10     9    2
    32    28    31    1
    33    11     9    1
    34     9     8    1
