@<TRIPOS>MOLECULE
./../dock_file/temp/9f6a3161eb4a362e535671bfaeb94ee7/Camostat_Ligand_CID_2536:hmTMPRSS9:20230418095913/Camostat_Ligand_CID_2536:hmTMPRSS9_out_1.pdbqt
 33 34 0 0 0
SMALL
GASTEIGER

@<TRIPOS>ATOM
      1  O         27.1060    9.5620   11.2850 O.3     1  LIG1       -0.2750
      2  C         27.0110    8.5200   12.1550 C.ar    1  LIG1        0.0790
      3  C         26.1130    7.4810   11.9050 C.ar    1  LIG1        0.0380
      4  C         26.0160    6.4140   12.7970 C.ar    1  LIG1        0.0100
      5  C         26.8170    6.3830   13.9390 C.ar    1  LIG1       -0.0490
      6  C         27.7140    7.4220   14.1890 C.ar    1  LIG1        0.0100
      7  C         27.8110    8.4900   13.2970 C.ar    1  LIG1        0.0380
      8  C         26.7120    5.2300   14.9020 C.3     1  LIG1        0.1490
      9  C         26.1020    5.6230   16.2280 C.2     1  LIG1        0.2630
     10  O         25.1890    6.4230   16.3780 O.2     1  LIG1       -0.2650
     11  O         26.7300    4.9410   17.2420 O.3     1  LIG1       -0.3120
     12  C         28.0240    5.3900   17.5890 C.3     1  LIG1        0.2810
     13  C         27.9880    6.0390   18.9570 C.2     1  LIG1        0.2430
     14  O         27.6890    5.3470   19.9340 O.2     1  LIG1       -0.2710
     15  N         28.3070    7.3950   19.0330 N.am    1  LIG1       -0.3590
     16  C         28.6790    8.2430   17.9020 C.3     1  LIG1        0.1520
     17  C         28.2950    8.0620   20.3290 C.3     1  LIG1        0.1520
     18  C         26.1160   10.5350   11.4430 C.2     1  LIG1        0.2980
     19  O         26.0350   11.3250   12.3710 O.2     1  LIG1       -0.2590
     20  C         25.1350   10.4860   10.3290 C.ar    1  LIG1        0.0400
     21  C         23.8220   10.0850   10.5730 C.ar    1  LIG1        0.0200
     22  C         22.9010   10.0400    9.5260 C.ar    1  LIG1        0.0330
     23  C         23.2930   10.3950    8.2360 C.ar    1  LIG1        0.0750
     24  C         24.6070   10.7950    7.9910 C.ar    1  LIG1        0.0330
     25  C         25.5280   10.8410    9.0380 C.ar    1  LIG1        0.0200
     26  N         22.3690   10.3490    7.1860 N.pl3   1  LIG1       -0.0660
     27  C         22.1450    9.2040    6.5880 C.cat   1  LIG1        0.6920
     28  N         22.7270    7.9870    6.8710 N.pl3   1  LIG1       -0.2330
     29  N         21.2450    9.1160    5.5520 N.pl3   1  LIG1       -0.2330
     30  H         23.3910    7.9150    7.5930 H       1  LIG1        0.1740
     31  H         22.4780    7.1890    6.3490 H       1  LIG1        0.1740
     32  H         20.7600    9.9180    5.2530 H       1  LIG1        0.1740
     33  H         21.0850    8.2500    5.1120 H       1  LIG1        0.1740
@<TRIPOS>BOND
     1    33    29    1
     2    32    29    1
     3    29    27    1
     4    31    28    1
     5    27    28    1
     6    27    26    2
     7    28    30    1
     8    26    23    1
     9    24    23   ar
    10    24    25   ar
    11    23    22   ar
    12    25    20   ar
    13    22    21   ar
    14    20    21   ar
    15    20    18    1
    16     1    18    1
    17     1     2    1
    18    18    19    2
    19     3     2   ar
    20     3     4   ar
    21     2     7   ar
    22     4     5   ar
    23     7     6   ar
    24     5     6   ar
    25     5     8    1
    26     8     9    1
    27     9    10    2
    28     9    11    1
    29    11    12    1
    30    12    13    1
    31    16    15    1
    32    13    15   am
    33    13    14    2
    34    15    17    1
@<TRIPOS>MOLECULE
./../dock_file/temp/9f6a3161eb4a362e535671bfaeb94ee7/Camostat_Ligand_CID_2536:hmTMPRSS9:20230418095913/Camostat_Ligand_CID_2536:hmTMPRSS9_out_1.pdbqt
 33 34 0 0 0
SMALL
GASTEIGER

@<TRIPOS>ATOM
      1  O         10.0730    3.7740    5.7780 O.3     1  LIG1       -0.2750
      2  C         11.2720    3.8120    5.1360 C.ar    1  LIG1        0.0790
      3  C         11.9440    2.6250    4.8420 C.ar    1  LIG1        0.0380
      4  C         13.1720    2.6630    4.1840 C.ar    1  LIG1        0.0100
      5  C         13.7300    3.8890    3.8180 C.ar    1  LIG1       -0.0490
      6  C         13.0590    5.0760    4.1120 C.ar    1  LIG1        0.0100
      7  C         11.8290    5.0370    4.7710 C.ar    1  LIG1        0.0380
      8  C         15.0580    3.9300    3.1070 C.3     1  LIG1        0.1490
      9  C         16.1460    3.1870    3.8460 C.2     1  LIG1        0.2630
     10  O         16.2140    1.9720    3.9710 O.2     1  LIG1       -0.2650
     11  O         17.0510    4.0860    4.3570 O.3     1  LIG1       -0.3120
     12  C         18.3320    4.0870    3.7650 C.3     1  LIG1        0.2810
     13  C         19.3560    4.5810    4.7660 C.2     1  LIG1        0.2430
     14  O         19.2700    4.2030    5.9380 O.2     1  LIG1       -0.2710
     15  N         20.3530    5.4370    4.2970 N.am    1  LIG1       -0.3590
     16  C         20.4960    5.8940    2.9160 C.3     1  LIG1        0.1520
     17  C         21.3650    5.9310    5.2210 C.3     1  LIG1        0.1520
     18  C          8.9650    3.8810    4.9340 C.2     1  LIG1        0.2980
     19  O          8.4090    2.9520    4.3670 O.2     1  LIG1       -0.2590
     20  C          8.5380    5.2960    4.7860 C.ar    1  LIG1        0.0400
     21  C          8.4070    5.8550    3.5160 C.ar    1  LIG1        0.0200
     22  C          8.0050    7.1840    3.3780 C.ar    1  LIG1        0.0330
     23  C          7.7370    7.9530    4.5100 C.ar    1  LIG1        0.0750
     24  C          7.8680    7.3940    5.7810 C.ar    1  LIG1        0.0330
     25  C          8.2700    6.0650    5.9190 C.ar    1  LIG1        0.0200
     26  N          7.3340    9.2860    4.3710 N.pl3   1  LIG1       -0.0660
     27  C          6.0820    9.5430    4.0790 C.cat   1  LIG1        0.6920
     28  N          5.0670    8.6310    3.8820 N.pl3   1  LIG1       -0.2330
     29  N          5.6460   10.8390    3.9340 N.pl3   1  LIG1       -0.2330
     30  H          5.2490    7.6680    3.9580 H       1  LIG1        0.1740
     31  H          4.1590    8.9460    3.6650 H       1  LIG1        0.1740
     32  H          6.2760   11.5860    4.0500 H       1  LIG1        0.1740
     33  H          4.7030   11.0190    3.7150 H       1  LIG1        0.1740
@<TRIPOS>BOND
     1    16    15    1
     2     8     5    1
     3     8     9    1
     4    22    21   ar
     5    22    23   ar
     6    21    20   ar
     7    31    28    1
     8    33    29    1
     9    12    11    1
    10    12    13    1
    11     5     6   ar
    12     5     4   ar
    13     9    10    2
    14     9    11    1
    15    28    30    1
    16    28    27    1
    17    29    32    1
    18    29    27    1
    19    27    26    2
    20     6     7   ar
    21     4     3   ar
    22    15    13   am
    23    15    17    1
    24    19    18    2
    25    26    23    1
    26    23    24   ar
    27    13    14    2
    28     7     2   ar
    29    20    18    1
    30    20    25   ar
    31     3     2   ar
    32    18     1    1
    33     2     1    1
    34    24    25   ar
@<TRIPOS>MOLECULE
./../dock_file/temp/9f6a3161eb4a362e535671bfaeb94ee7/Camostat_Ligand_CID_2536:hmTMPRSS9:20230418095913/Camostat_Ligand_CID_2536:hmTMPRSS9_out_1.pdbqt
 33 34 0 0 0
SMALL
GASTEIGER

@<TRIPOS>ATOM
      1  O         10.0250    3.9540    3.7010 O.3     1  LIG1       -0.2750
      2  C         11.3390    4.2910    3.8070 C.ar    1  LIG1        0.0790
      3  C         12.3270    3.3610    3.4800 C.ar    1  LIG1        0.0380
      4  C         13.6730    3.7070    3.5890 C.ar    1  LIG1        0.0100
      5  C         14.0330    4.9830    4.0230 C.ar    1  LIG1       -0.0490
      6  C         13.0450    5.9120    4.3500 C.ar    1  LIG1        0.0100
      7  C         11.6980    5.5670    4.2410 C.ar    1  LIG1        0.0380
      8  C         15.4880    5.3560    4.1410 C.3     1  LIG1        0.1490
      9  C         16.0500    5.9440    2.8680 C.2     1  LIG1        0.2630
     10  O         16.6130    5.3130    1.9840 O.2     1  LIG1       -0.2650
     11  O         15.8300    7.3010    2.8530 O.3     1  LIG1       -0.3120
     12  C         15.4210    7.8540    1.6190 C.3     1  LIG1        0.2810
     13  C         13.9480    8.2000    1.6800 C.2     1  LIG1        0.2430
     14  O         13.6070    9.2470    2.2370 O.2     1  LIG1       -0.2710
     15  N         13.0530    7.3080    1.0880 N.am    1  LIG1       -0.3590
     16  C         13.4190    6.0670    0.4080 C.3     1  LIG1        0.1520
     17  C         11.6260    7.6020    1.1140 C.3     1  LIG1        0.1520
     18  C          9.2990    4.0910    4.8870 C.2     1  LIG1        0.2980
     19  O          9.3940    3.3690    5.8680 O.2     1  LIG1       -0.2590
     20  C          8.3590    5.2390    4.8100 C.ar    1  LIG1        0.0400
     21  C          8.3030    6.1640    5.8510 C.ar    1  LIG1        0.0200
     22  C          7.4210    7.2430    5.7780 C.ar    1  LIG1        0.0330
     23  C          6.5940    7.3940    4.6650 C.ar    1  LIG1        0.0750
     24  C          6.6500    6.4680    3.6230 C.ar    1  LIG1        0.0330
     25  C          7.5330    5.3900    3.6960 C.ar    1  LIG1        0.0200
     26  N          5.7100    8.4760    4.5930 N.pl3   1  LIG1       -0.0660
     27  C          6.0510    9.5270    3.8870 C.cat   1  LIG1        0.6920
     28  N          7.2170    9.7140    3.1770 N.pl3   1  LIG1       -0.2330
     29  N          5.2090   10.6110    3.7900 N.pl3   1  LIG1       -0.2330
     30  H          7.9040    9.0100    3.1660 H       1  LIG1        0.1740
     31  H          7.3620   10.5520    2.6810 H       1  LIG1        0.1740
     32  H          4.3410   10.6020    4.2520 H       1  LIG1        0.1740
     33  H          5.4770   11.3940    3.2560 H       1  LIG1        0.1740
@<TRIPOS>BOND
     1    16    15    1
     2    15    17    1
     3    15    13   am
     4    12    13    1
     5    12    11    1
     6    13    14    2
     7    10     9    2
     8    31    28    1
     9    11     9    1
    10     9     8    1
    11    30    28    1
    12    28    27    1
    13    33    29    1
    14     3     4   ar
    15     3     2   ar
    16     4     5   ar
    17    24    25   ar
    18    24    23   ar
    19    25    20   ar
    20     1     2    1
    21     1    18    1
    22    29    27    1
    23    29    32    1
    24     2     7   ar
    25    27    26    2
    26     5     8    1
    27     5     6   ar
    28     7     6   ar
    29    26    23    1
    30    23    22   ar
    31    20    18    1
    32    20    21   ar
    33    18    19    2
    34    22    21   ar
@<TRIPOS>MOLECULE
./../dock_file/temp/9f6a3161eb4a362e535671bfaeb94ee7/Camostat_Ligand_CID_2536:hmTMPRSS9:20230418095913/Camostat_Ligand_CID_2536:hmTMPRSS9_out_1.pdbqt
 33 34 0 0 0
SMALL
GASTEIGER

@<TRIPOS>ATOM
      1  O         16.5440   15.3230   11.6080 O.3     1  LIG1       -0.2750
      2  C         17.5750   15.9290   10.9590 C.ar    1  LIG1        0.0790
      3  C         18.0820   15.3750    9.7840 C.ar    1  LIG1        0.0380
      4  C         19.1390   15.9960    9.1190 C.ar    1  LIG1        0.0100
      5  C         19.6890   17.1730    9.6290 C.ar    1  LIG1       -0.0490
      6  C         19.1810   17.7260   10.8050 C.ar    1  LIG1        0.0100
      7  C         18.1240   17.1050   11.4700 C.ar    1  LIG1        0.0380
      8  C         20.8310   17.8440    8.9120 C.3     1  LIG1        0.1490
      9  C         22.1750   17.5410    9.5300 C.2     1  LIG1        0.2630
     10  O         22.7330   16.4520    9.5150 O.2     1  LIG1       -0.2650
     11  O         22.6790   18.6790   10.1140 O.3     1  LIG1       -0.3120
     12  C         23.8300   18.5120   10.9150 C.3     1  LIG1        0.2810
     13  C         23.4410   18.5420   12.3780 C.2     1  LIG1        0.2430
     14  O         22.7880   19.5010   12.7990 O.2     1  LIG1       -0.2710
     15  N         23.8400   17.4660   13.1710 N.am    1  LIG1       -0.3590
     16  C         24.6000   16.3080   12.7070 C.3     1  LIG1        0.1520
     17  C         23.4820   17.4460   14.5840 C.3     1  LIG1        0.1520
     18  C         15.4030   15.1330   10.8240 C.2     1  LIG1        0.2980
     19  O         15.0250   14.0660   10.3630 O.2     1  LIG1       -0.2590
     20  C         14.6920   16.4160   10.5930 C.ar    1  LIG1        0.0400
     21  C         14.3800   16.8160    9.2950 C.ar    1  LIG1        0.0200
     22  C         13.7110   18.0210    9.0780 C.ar    1  LIG1        0.0330
     23  C         13.3560   18.8260   10.1600 C.ar    1  LIG1        0.0750
     24  C         13.6690   18.4260   11.4590 C.ar    1  LIG1        0.0330
     25  C         14.3370   17.2210   11.6760 C.ar    1  LIG1        0.0200
     26  N         12.6860   20.0350    9.9430 N.pl3   1  LIG1       -0.0660
     27  C         13.3620   21.1570   10.0170 C.cat   1  LIG1        0.6920
     28  N         14.7040   21.3060   10.2920 N.pl3   1  LIG1       -0.2330
     29  N         12.7400   22.3660    9.8100 N.pl3   1  LIG1       -0.2330
     30  H         15.2630   20.5140   10.4610 H       1  LIG1        0.1740
     31  H         15.1020   22.2060   10.3220 H       1  LIG1        0.1740
     32  H         11.7790   22.3960    9.6030 H       1  LIG1        0.1740
     33  H         13.2590   23.2010    9.8670 H       1  LIG1        0.1740
@<TRIPOS>BOND
     1     8     9    1
     2     8     5    1
     3    22    21   ar
     4    22    23   ar
     5     4     5   ar
     6     4     3   ar
     7    21    20   ar
     8    10     9    2
     9     9    11    1
    10    32    29    1
    11     5     6   ar
    12     3     2   ar
    13    29    33    1
    14    29    27    1
    15    26    27    2
    16    26    23    1
    17    27    28    1
    18    11    12    1
    19    23    24   ar
    20    28    31    1
    21    28    30    1
    22    19    18    2
    23    20    18    1
    24    20    25   ar
    25     6     7   ar
    26    18     1    1
    27    12    13    1
    28     2     7   ar
    29     2     1    1
    30    24    25   ar
    31    13    14    2
    32    13    15   am
    33    16    15    1
    34    15    17    1
@<TRIPOS>MOLECULE
./../dock_file/temp/9f6a3161eb4a362e535671bfaeb94ee7/Camostat_Ligand_CID_2536:hmTMPRSS9:20230418095913/Camostat_Ligand_CID_2536:hmTMPRSS9_out_1.pdbqt
 33 34 0 0 0
SMALL
GASTEIGER

@<TRIPOS>ATOM
      1  O         18.4750   17.0930    6.6940 O.3     1  LIG1       -0.2750
      2  C         18.4170   16.9740    8.0480 C.ar    1  LIG1        0.0790
      3  C         18.3570   15.7110    8.6370 C.ar    1  LIG1        0.0380
      4  C         18.2980   15.5900   10.0240 C.ar    1  LIG1        0.0100
      5  C         18.3000   16.7320   10.8250 C.ar    1  LIG1       -0.0490
      6  C         18.3600   17.9960   10.2370 C.ar    1  LIG1        0.0100
      7  C         18.4190   18.1170    8.8480 C.ar    1  LIG1        0.0380
      8  C         18.2360   16.6020   12.3250 C.3     1  LIG1        0.1490
      9  C         16.8410   16.3200   12.8330 C.2     1  LIG1        0.2630
     10  O         16.5400   15.4370   13.6240 O.2     1  LIG1       -0.2650
     11  O         15.9580   17.2100   12.2690 O.3     1  LIG1       -0.3120
     12  C         14.7370   16.6720   11.8070 C.3     1  LIG1        0.2810
     13  C         14.7470   16.6120   10.2940 C.2     1  LIG1        0.2430
     14  O         14.8100   17.6680    9.6590 O.2     1  LIG1       -0.2710
     15  N         14.6920   15.3500    9.7010 N.am    1  LIG1       -0.3590
     16  C         14.6320   14.0780   10.4180 C.3     1  LIG1        0.1520
     17  C         14.7080   15.2400    8.2480 C.3     1  LIG1        0.1520
     18  C         17.2370   16.9890    6.0540 C.2     1  LIG1        0.2980
     19  O         16.2720   17.7110    6.2480 O.2     1  LIG1       -0.2590
     20  C         17.2240   15.8550    5.0950 C.ar    1  LIG1        0.0400
     21  C         16.0260   15.4540    4.5050 C.ar    1  LIG1        0.0200
     22  C         16.0140   14.3900    3.6040 C.ar    1  LIG1        0.0330
     23  C         17.2000   13.7250    3.2930 C.ar    1  LIG1        0.0750
     24  C         18.4000   14.1260    3.8830 C.ar    1  LIG1        0.0330
     25  C         18.4110   15.1900    4.7850 C.ar    1  LIG1        0.0200
     26  N         17.1880   12.6580    2.3890 N.pl3   1  LIG1       -0.0660
     27  C         17.0150   11.4410    2.8480 C.cat   1  LIG1        0.6920
     28  N         16.8350   11.0610    4.1600 N.pl3   1  LIG1       -0.2330
     29  N         16.9960   10.3640    1.9920 N.pl3   1  LIG1       -0.2330
     30  H         16.8290   11.7400    4.8720 H       1  LIG1        0.1740
     31  H         16.7150   10.1100    4.3850 H       1  LIG1        0.1740
     32  H         17.1130   10.5020    1.0250 H       1  LIG1        0.1740
     33  H         16.8650    9.4560    2.3490 H       1  LIG1        0.1740
@<TRIPOS>BOND
     1    32    29    1
     2    29    33    1
     3    29    27    1
     4    26    27    2
     5    26    23    1
     6    27    28    1
     7    23    22   ar
     8    23    24   ar
     9    22    21   ar
    10    24    25   ar
    11    28    31    1
    12    28    30    1
    13    21    20   ar
    14    25    20   ar
    15    20    18    1
    16    18    19    2
    17    18     1    1
    18     1     2    1
    19     2     3   ar
    20     2     7   ar
    21    17    15    1
    22     3     4   ar
    23     7     6   ar
    24    14    13    2
    25    15    13   am
    26    15    16    1
    27     4     5   ar
    28     6     5   ar
    29    13    12    1
    30     5     8    1
    31    12    11    1
    32    11     9    1
    33     8     9    1
    34     9    10    2
@<TRIPOS>MOLECULE
./../dock_file/temp/9f6a3161eb4a362e535671bfaeb94ee7/Camostat_Ligand_CID_2536:hmTMPRSS9:20230418095913/Camostat_Ligand_CID_2536:hmTMPRSS9_out_1.pdbqt
 33 34 0 0 0
SMALL
GASTEIGER

@<TRIPOS>ATOM
      1  O         21.0430   18.6410   10.5430 O.3     1  LIG1       -0.2750
      2  C         19.7300   18.3400   10.7410 C.ar    1  LIG1        0.0790
      3  C         18.7390   19.2200   10.3080 C.ar    1  LIG1        0.0380
      4  C         17.3950   18.9120   10.5120 C.ar    1  LIG1        0.0100
      5  C         17.0410   17.7220   11.1490 C.ar    1  LIG1       -0.0490
      6  C         18.0320   16.8410   11.5820 C.ar    1  LIG1        0.0100
      7  C         19.3770   17.1500   11.3780 C.ar    1  LIG1        0.0380
      8  C         15.5880   17.3880   11.3690 C.3     1  LIG1        0.1490
      9  C         15.1770   16.0870   10.7190 C.2     1  LIG1        0.2630
     10  O         15.2000   14.9880   11.2550 O.2     1  LIG1       -0.2650
     11  O         14.7710   16.3280    9.4280 O.3     1  LIG1       -0.3120
     12  C         15.4370   15.6010    8.4180 C.3     1  LIG1        0.2810
     13  C         14.4550   14.6840    7.7180 C.2     1  LIG1        0.2430
     14  O         13.7820   13.9050    8.3990 O.2     1  LIG1       -0.2710
     15  N         14.3610   14.7830    6.3290 N.am    1  LIG1       -0.3590
     16  C         15.1280   15.7020    5.4920 C.3     1  LIG1        0.1520
     17  C         13.4240   13.9270    5.6130 C.3     1  LIG1        0.1520
     18  C         21.6350   19.3510   11.5900 C.2     1  LIG1        0.2980
     19  O         21.4880   20.5430   11.8150 O.2     1  LIG1       -0.2590
     20  C         22.5010   18.4690   12.4120 C.ar    1  LIG1        0.0400
     21  C         22.3760   18.4680   13.8010 C.ar    1  LIG1        0.0200
     22  C         23.1900   17.6390   14.5730 C.ar    1  LIG1        0.0330
     23  C         24.1290   16.8120   13.9570 C.ar    1  LIG1        0.0750
     24  C         24.2550   16.8140   12.5680 C.ar    1  LIG1        0.0330
     25  C         23.4410   17.6420   11.7950 C.ar    1  LIG1        0.0200
     26  N         24.9460   15.9810   14.7320 N.pl3   1  LIG1       -0.0660
     27  C         26.1080   16.4340   15.1370 C.cat   1  LIG1        0.6920
     28  N         26.6540   17.6750   14.8880 N.pl3   1  LIG1       -0.2330
     29  N         26.9400   15.6490   15.9010 N.pl3   1  LIG1       -0.2330
     30  H         26.1570   18.3320   14.3510 H       1  LIG1        0.1740
     31  H         27.5420   17.9020   15.2470 H       1  LIG1        0.1740
     32  H         26.6650   14.7370   16.1490 H       1  LIG1        0.1740
     33  H         27.8100   16.0000   16.1990 H       1  LIG1        0.1740
@<TRIPOS>BOND
     1    16    15    1
     2    17    15    1
     3    15    13   am
     4    13    14    2
     5    13    12    1
     6    12    11    1
     7    11     9    1
     8     3     4   ar
     9     3     2   ar
    10     4     5   ar
    11     1     2    1
    12     1    18    1
    13     9    10    2
    14     9     8    1
    15     2     7   ar
    16     5     8    1
    17     5     6   ar
    18     7     6   ar
    19    18    19    2
    20    18    20    1
    21    25    20   ar
    22    25    24   ar
    23    20    21   ar
    24    24    23   ar
    25    21    22   ar
    26    23    22   ar
    27    23    26    1
    28    30    28    1
    29    26    27    2
    30    28    27    1
    31    28    31    1
    32    27    29    1
    33    29    32    1
    34    29    33    1
@<TRIPOS>MOLECULE
./../dock_file/temp/9f6a3161eb4a362e535671bfaeb94ee7/Camostat_Ligand_CID_2536:hmTMPRSS9:20230418095913/Camostat_Ligand_CID_2536:hmTMPRSS9_out_1.pdbqt
 33 34 0 0 0
SMALL
GASTEIGER

@<TRIPOS>ATOM
      1  O          9.4240    6.8830    4.0580 O.3     1  LIG1       -0.2750
      2  C          9.8290    5.7080    4.6130 C.ar    1  LIG1        0.0790
      3  C          8.9000    4.8740    5.2380 C.ar    1  LIG1        0.0380
      4  C          9.3150    3.6710    5.8060 C.ar    1  LIG1        0.0100
      5  C         10.6590    3.2990    5.7500 C.ar    1  LIG1       -0.0490
      6  C         11.5870    4.1330    5.1260 C.ar    1  LIG1        0.0100
      7  C         11.1720    5.3370    4.5570 C.ar    1  LIG1        0.0380
      8  C         11.1070    1.9990    6.3650 C.3     1  LIG1        0.1490
      9  C         11.7210    1.0530    5.3590 C.2     1  LIG1        0.2630
     10  O         12.9170    0.9440    5.1260 O.2     1  LIG1       -0.2650
     11  O         10.7270    0.3290    4.7440 O.3     1  LIG1       -0.3120
     12  C         10.6790    0.4070    3.3350 C.3     1  LIG1        0.2810
     13  C          9.6270    1.4120    2.9160 C.2     1  LIG1        0.2430
     14  O          8.4570    1.2270    3.2630 O.2     1  LIG1       -0.2710
     15  N         10.0490    2.5070    2.1600 N.am    1  LIG1       -0.3590
     16  C         11.4240    2.7680    1.7420 C.3     1  LIG1        0.1520
     17  C          9.0740    3.5050    1.7400 C.3     1  LIG1        0.1520
     18  C          8.3780    7.5100    4.7390 C.2     1  LIG1        0.2980
     19  O          8.4840    8.1460    5.7760 O.2     1  LIG1       -0.2590
     20  C          7.0830    7.2960    4.0450 C.ar    1  LIG1        0.0400
     21  C          7.0620    6.7750    2.7520 C.ar    1  LIG1        0.0200
     22  C          5.8450    6.5730    2.1010 C.ar    1  LIG1        0.0330
     23  C          4.6490    6.8930    2.7420 C.ar    1  LIG1        0.0750
     24  C          4.6690    7.4140    4.0360 C.ar    1  LIG1        0.0330
     25  C          5.8860    7.6160    4.6870 C.ar    1  LIG1        0.0200
     26  N          3.4290    6.6900    2.0890 N.pl3   1  LIG1       -0.0660
     27  C          2.8100    5.5440    2.2430 C.cat   1  LIG1        0.6920
     28  N          3.2240    4.4670    2.9960 N.pl3   1  LIG1       -0.2330
     29  N          1.6080    5.3050    1.6180 N.pl3   1  LIG1       -0.2330
     30  H          4.0710    4.5110    3.4940 H       1  LIG1        0.1740
     31  H          2.6710    3.6520    3.0350 H       1  LIG1        0.1740
     32  H          1.2030    5.9980    1.0490 H       1  LIG1        0.1740
     33  H          1.1530    4.4410    1.7420 H       1  LIG1        0.1740
@<TRIPOS>BOND
     1    32    29    1
     2    29    33    1
     3    29    27    1
     4    17    15    1
     5    16    15    1
     6    26    27    2
     7    26    23    1
     8    22    23   ar
     9    22    21   ar
    10    15    13   am
    11    27    28    1
    12    23    24   ar
    13    21    20   ar
    14    13    14    2
    15    13    12    1
    16    28    31    1
    17    28    30    1
    18    12    11    1
    19    24    25   ar
    20    20    25   ar
    21    20    18    1
    22     1     2    1
    23     1    18    1
    24     7     2   ar
    25     7     6   ar
    26     2     3   ar
    27    18    19    2
    28    11     9    1
    29    10     9    2
    30     6     5   ar
    31     3     4   ar
    32     9     8    1
    33     5     4   ar
    34     5     8    1
@<TRIPOS>MOLECULE
./../dock_file/temp/9f6a3161eb4a362e535671bfaeb94ee7/Camostat_Ligand_CID_2536:hmTMPRSS9:20230418095913/Camostat_Ligand_CID_2536:hmTMPRSS9_out_1.pdbqt
 33 34 0 0 0
SMALL
GASTEIGER

@<TRIPOS>ATOM
      1  O         16.5010   15.3100   11.6210 O.3     1  LIG1       -0.2750
      2  C         17.5250   15.9220   10.9660 C.ar    1  LIG1        0.0790
      3  C         18.0540   17.1160   11.4560 C.ar    1  LIG1        0.0380
      4  C         19.1030   17.7420   10.7850 C.ar    1  LIG1        0.0100
      5  C         19.6260   17.1740    9.6230 C.ar    1  LIG1       -0.0490
      6  C         19.0980   15.9790    9.1330 C.ar    1  LIG1        0.0100
      7  C         18.0480   15.3530    9.8050 C.ar    1  LIG1        0.0380
      8  C         20.7600   17.8500    8.8980 C.3     1  LIG1        0.1490
      9  C         20.3990   18.2550    7.4880 C.2     1  LIG1        0.2630
     10  O         21.0160   17.9410    6.4800 O.2     1  LIG1       -0.2650
     11  O         19.2660   19.0340    7.5100 O.3     1  LIG1       -0.3120
     12  C         19.4630   20.4190    7.6980 C.3     1  LIG1        0.2810
     13  C         18.5440   20.9210    8.7920 C.2     1  LIG1        0.2430
     14  O         17.3290   20.9430    8.5820 O.2     1  LIG1       -0.2710
     15  N         19.1330   21.3250    9.9910 N.am    1  LIG1       -0.3590
     16  C         20.5650   21.2990   10.2820 C.3     1  LIG1        0.1520
     17  C         18.2890   21.8070   11.0770 C.3     1  LIG1        0.1520
     18  C         15.3520   15.1280   10.8480 C.2     1  LIG1        0.2980
     19  O         14.9540   14.0610   10.4040 O.2     1  LIG1       -0.2590
     20  C         14.6580   16.4180   10.6060 C.ar    1  LIG1        0.0400
     21  C         14.3100   17.2340   11.6820 C.ar    1  LIG1        0.0200
     22  C         13.6590   18.4470   11.4550 C.ar    1  LIG1        0.0330
     23  C         13.3550   18.8430   10.1530 C.ar    1  LIG1        0.0750
     24  C         13.7030   18.0270    9.0760 C.ar    1  LIG1        0.0330
     25  C         14.3550   16.8140    9.3030 C.ar    1  LIG1        0.0200
     26  N         12.7020   20.0590    9.9260 N.pl3   1  LIG1       -0.0660
     27  C         13.3980   21.1700    9.9660 C.cat   1  LIG1        0.6920
     28  N         14.7480   21.3000   10.2150 N.pl3   1  LIG1       -0.2330
     29  N         12.7940   22.3860    9.7480 N.pl3   1  LIG1       -0.2330
     30  H         15.2960   20.5020   10.3880 H       1  LIG1        0.1740
     31  H         15.1620   22.1940   10.2200 H       1  LIG1        0.1740
     32  H         11.8300   22.4290    9.5590 H       1  LIG1        0.1740
     33  H         13.3280   23.2130    9.7810 H       1  LIG1        0.1740
@<TRIPOS>BOND
     1    10     9    2
     2     9    11    1
     3     9     8    1
     4    11    12    1
     5    12    13    1
     6    14    13    2
     7    13    15   am
     8     8     5    1
     9    24    25   ar
    10    24    23   ar
    11     6     5   ar
    12     6     7   ar
    13    25    20   ar
    14    32    29    1
    15     5     4   ar
    16    29    33    1
    17    29    27    1
    18     7     2   ar
    19    26    27    2
    20    26    23    1
    21    27    28    1
    22    15    16    1
    23    15    17    1
    24    23    22   ar
    25    28    31    1
    26    28    30    1
    27    19    18    2
    28    20    18    1
    29    20    21   ar
    30     4     3   ar
    31    18     1    1
    32     2     3   ar
    33     2     1    1
    34    22    21   ar
@<TRIPOS>MOLECULE
./../dock_file/temp/9f6a3161eb4a362e535671bfaeb94ee7/Camostat_Ligand_CID_2536:hmTMPRSS9:20230418095913/Camostat_Ligand_CID_2536:hmTMPRSS9_out_1.pdbqt
 33 34 0 0 0
SMALL
GASTEIGER

@<TRIPOS>ATOM
      1  O         20.2830   17.9400    8.9370 O.3     1  LIG1       -0.2750
      2  C         19.1910   17.6630    9.7000 C.ar    1  LIG1        0.0790
      3  C         18.3690   18.6990   10.1440 C.ar    1  LIG1        0.0380
      4  C         17.2500   18.4150   10.9260 C.ar    1  LIG1        0.0100
      5  C         16.9510   17.0950   11.2630 C.ar    1  LIG1       -0.0490
      6  C         17.7730   16.0590   10.8180 C.ar    1  LIG1        0.0100
      7  C         18.8920   16.3430   10.0360 C.ar    1  LIG1        0.0380
      8  C         15.7410   16.7880   12.1070 C.3     1  LIG1        0.1490
      9  C         14.4390   17.0390   11.3840 C.2     1  LIG1        0.2630
     10  O         13.6060   17.8790   11.6960 O.2     1  LIG1       -0.2650
     11  O         14.3320   16.1780   10.3180 O.3     1  LIG1       -0.3120
     12  C         13.9830   16.7600    9.0790 C.3     1  LIG1        0.2810
     13  C         14.9100   16.2460    7.9970 C.2     1  LIG1        0.2430
     14  O         15.9930   16.8130    7.8240 O.2     1  LIG1       -0.2710
     15  N         14.4840   15.1430    7.2560 N.am    1  LIG1       -0.3590
     16  C         13.2180   14.4360    7.4410 C.3     1  LIG1        0.1520
     17  C         15.3450   14.6070    6.2100 C.3     1  LIG1        0.1520
     18  C         21.4990   17.5760    9.5200 C.2     1  LIG1        0.2980
     19  O         22.1310   16.5590    9.2750 O.2     1  LIG1       -0.2590
     20  C         21.9400   18.5870   10.5140 C.ar    1  LIG1        0.0400
     21  C         22.0300   18.2460   11.8630 C.ar    1  LIG1        0.0200
     22  C         22.4450   19.1970   12.7960 C.ar    1  LIG1        0.0330
     23  C         22.7700   20.4880   12.3810 C.ar    1  LIG1        0.0750
     24  C         22.6800   20.8290   11.0310 C.ar    1  LIG1        0.0330
     25  C         22.2650   19.8790   10.0980 C.ar    1  LIG1        0.0200
     26  N         23.1860   21.4400   13.3170 N.pl3   1  LIG1       -0.0660
     27  C         22.2870   22.2180   13.8710 C.cat   1  LIG1        0.6920
     28  N         20.9280   22.2190   13.6420 N.pl3   1  LIG1       -0.2330
     29  N         22.6550   23.1670   14.7960 N.pl3   1  LIG1       -0.2330
     30  H         20.5370   21.5860   12.9990 H       1  LIG1        0.1740
     31  H         20.3490   22.8560   14.1220 H       1  LIG1        0.1740
     32  H         23.6010   23.2680   15.0490 H       1  LIG1        0.1740
     33  H         21.9710   23.7450   15.2060 H       1  LIG1        0.1740
@<TRIPOS>BOND
     1    17    15    1
     2    15    16    1
     3    15    13   am
     4    14    13    2
     5    13    12    1
     6     1    18    1
     7     1     2    1
     8    12    11    1
     9    19    18    2
    10    18    20    1
    11     2     7   ar
    12     2     3   ar
    13     7     6   ar
    14    25    20   ar
    15    25    24   ar
    16     3     4   ar
    17    11     9    1
    18    20    21   ar
    19     6     5   ar
    20     4     5   ar
    21    24    23   ar
    22     5     8    1
    23     9    10    2
    24     9     8    1
    25    21    22   ar
    26    23    22   ar
    27    23    26    1
    28    30    28    1
    29    26    27    2
    30    28    27    1
    31    28    31    1
    32    27    29    1
    33    29    32    1
    34    29    33    1
