@<TRIPOS>MOLECULE
./../dock_file/temp/9f6a3161eb4a362e535671bfaeb94ee7/Camostat_Ligand_CID_2536:hmTMPRSS9:20230418095913/Camostat_Ligand_CID_2536:hmTMPRSS9_out_4.pdbqt
 33 34 0 0 0
SMALL
GASTEIGER

@<TRIPOS>ATOM
      1  O          8.1880  -12.2610    3.8470 O.3     1  LIG1       -0.2750
      2  C          6.8920  -12.2390    4.2610 C.ar    1  LIG1        0.0790
      3  C          5.9660  -11.4180    3.6150 C.ar    1  LIG1        0.0380
      4  C          4.6390  -11.3960    4.0400 C.ar    1  LIG1        0.0100
      5  C          4.2340  -12.1950    5.1100 C.ar    1  LIG1       -0.0490
      6  C          5.1600  -13.0150    5.7560 C.ar    1  LIG1        0.0100
      7  C          6.4880  -13.0380    5.3310 C.ar    1  LIG1        0.0380
      8  C          2.8000  -12.1710    5.5690 C.3     1  LIG1        0.1490
      9  C          1.9090  -11.3400    4.6750 C.2     1  LIG1        0.2630
     10  O          1.4790  -11.6860    3.5840 O.2     1  LIG1       -0.2650
     11  O          1.6530  -10.1310    5.2790 O.3     1  LIG1       -0.3120
     12  C          0.2950   -9.7570    5.3750 C.3     1  LIG1        0.2810
     13  C         -0.3030  -10.3310    6.6420 C.2     1  LIG1        0.2430
     14  O          0.0930   -9.9060    7.7310 O.2     1  LIG1       -0.2710
     15  N         -1.2850  -11.3130    6.5020 N.am    1  LIG1       -0.3590
     16  C         -1.7900  -11.8310    5.2330 C.3     1  LIG1        0.1520
     17  C         -1.8960  -11.8900    7.6930 C.3     1  LIG1        0.1520
     18  C          9.0410  -11.4380    4.5850 C.2     1  LIG1        0.2980
     19  O          9.8300  -11.8120    5.4400 O.2     1  LIG1       -0.2590
     20  C          8.8630  -10.0110    4.2130 C.ar    1  LIG1        0.0400
     21  C          9.0960   -9.5990    2.9020 C.ar    1  LIG1        0.0200
     22  C          8.9280   -8.2590    2.5520 C.ar    1  LIG1        0.0330
     23  C          8.5290   -7.3310    3.5140 C.ar    1  LIG1        0.0750
     24  C          8.2970   -7.7430    4.8260 C.ar    1  LIG1        0.0330
     25  C          8.4650   -9.0830    5.1760 C.ar    1  LIG1        0.0200
     26  N          8.3610   -5.9870    3.1630 N.pl3   1  LIG1       -0.0660
     27  C          7.1820   -5.5800    2.7590 C.cat   1  LIG1        0.6920
     28  N          6.0370   -6.3370    2.6290 N.pl3   1  LIG1       -0.2330
     29  N          6.9750   -4.2680    2.4050 N.pl3   1  LIG1       -0.2330
     30  H          6.0530   -7.2950    2.8500 H       1  LIG1        0.1740
     31  H          5.2040   -5.9180    2.3120 H       1  LIG1        0.1740
     32  H          7.7160   -3.6220    2.4550 H       1  LIG1        0.1740
     33  H          6.0850   -3.9740    2.1040 H       1  LIG1        0.1740
@<TRIPOS>BOND
     1    33    29    1
     2    31    28    1
     3    29    32    1
     4    29    27    1
     5    22    21   ar
     6    22    23   ar
     7    28    27    1
     8    28    30    1
     9    27    26    2
    10    21    20   ar
    11    26    23    1
    12    23    24   ar
    13    10     9    2
    14     3     4   ar
    15     3     2   ar
    16     1     2    1
    17     1    18    1
    18     4     5   ar
    19    20    18    1
    20    20    25   ar
    21     2     7   ar
    22    18    19    2
    23     9    11    1
    24     9     8    1
    25    24    25   ar
    26     5     8    1
    27     5     6   ar
    28    16    15    1
    29    11    12    1
    30     7     6   ar
    31    12    13    1
    32    15    13   am
    33    15    17    1
    34    13    14    2
@<TRIPOS>MOLECULE
./../dock_file/temp/9f6a3161eb4a362e535671bfaeb94ee7/Camostat_Ligand_CID_2536:hmTMPRSS9:20230418095913/Camostat_Ligand_CID_2536:hmTMPRSS9_out_4.pdbqt
 33 34 0 0 0
SMALL
GASTEIGER

@<TRIPOS>ATOM
      1  O          2.7000  -12.0710    5.4460 O.3     1  LIG1       -0.2750
      2  C          1.4320  -11.6450    5.6990 C.ar    1  LIG1        0.0790
      3  C          0.4890  -12.5300    6.2220 C.ar    1  LIG1        0.0380
      4  C         -0.8090  -12.0930    6.4810 C.ar    1  LIG1        0.0100
      5  C         -1.1660  -10.7710    6.2170 C.ar    1  LIG1       -0.0490
      6  C         -0.2240   -9.8850    5.6940 C.ar    1  LIG1        0.0100
      7  C          1.0760  -10.3220    5.4350 C.ar    1  LIG1        0.0380
      8  C         -2.5690  -10.2990    6.4970 C.3     1  LIG1        0.1490
      9  C         -2.7170   -9.6650    7.8610 C.2     1  LIG1        0.2630
     10  O         -1.9030   -9.7430    8.7700 O.2     1  LIG1       -0.2650
     11  O         -3.9100   -8.9840    7.9230 O.3     1  LIG1       -0.3120
     12  C         -4.2670   -8.2440    6.7750 C.3     1  LIG1        0.2810
     13  C         -4.2610   -6.7650    7.1010 C.2     1  LIG1        0.2430
     14  O         -5.2350   -6.2810    7.6830 O.2     1  LIG1       -0.2710
     15  N         -3.1350   -6.0290    6.7270 N.am    1  LIG1       -0.3590
     16  C         -1.9570   -6.5680    6.0510 C.3     1  LIG1        0.1520
     17  C         -3.0790   -4.6040    7.0260 C.3     1  LIG1        0.1520
     18  C          3.1440  -11.8130    4.1470 C.2     1  LIG1        0.2980
     19  O          2.6030  -12.1940    3.1200 O.2     1  LIG1       -0.2590
     20  C          4.3950  -11.0130    4.1570 C.ar    1  LIG1        0.0400
     21  C          4.3840   -9.6940    3.7060 C.ar    1  LIG1        0.0200
     22  C          5.5590   -8.9430    3.7170 C.ar    1  LIG1        0.0330
     23  C          6.7460   -9.5110    4.1780 C.ar    1  LIG1        0.0750
     24  C          6.7580  -10.8310    4.6300 C.ar    1  LIG1        0.0330
     25  C          5.5830  -11.5820    4.6190 C.ar    1  LIG1        0.0200
     26  N          7.9250   -8.7570    4.1880 N.pl3   1  LIG1       -0.0660
     27  C          8.1850   -8.0030    5.2290 C.cat   1  LIG1        0.6920
     28  N          7.4160   -7.8500    6.3620 N.pl3   1  LIG1       -0.2330
     29  N          9.3330   -7.2470    5.2790 N.pl3   1  LIG1       -0.2330
     30  H          6.5670   -8.3380    6.4500 H       1  LIG1        0.1740
     31  H          7.7170   -7.2500    7.0830 H       1  LIG1        0.1740
     32  H          9.9690   -7.2690    4.5290 H       1  LIG1        0.1740
     33  H          9.5180   -6.6850    6.0660 H       1  LIG1        0.1740
@<TRIPOS>BOND
     1    19    18    2
     2    21    22   ar
     3    21    20   ar
     4    22    23   ar
     5    18    20    1
     6    18     1    1
     7    20    25   ar
     8    23    26    1
     9    23    24   ar
    10    26    27    2
    11    32    29    1
    12    25    24   ar
    13    27    29    1
    14    27    28    1
    15    29    33    1
    16     7     6   ar
    17     7     2   ar
    18     1     2    1
    19     6     5   ar
    20     2     3   ar
    21    16    15    1
    22     5     4   ar
    23     5     8    1
    24     3     4   ar
    25    28    30    1
    26    28    31    1
    27     8     9    1
    28    15    17    1
    29    15    13   am
    30    12    13    1
    31    12    11    1
    32    13    14    2
    33     9    11    1
    34     9    10    2
@<TRIPOS>MOLECULE
./../dock_file/temp/9f6a3161eb4a362e535671bfaeb94ee7/Camostat_Ligand_CID_2536:hmTMPRSS9:20230418095913/Camostat_Ligand_CID_2536:hmTMPRSS9_out_4.pdbqt
 33 34 0 0 0
SMALL
GASTEIGER

@<TRIPOS>ATOM
      1  O         -2.5890  -18.5210   14.9070 O.3     1  LIG1       -0.2750
      2  C         -3.0990  -17.2820   15.1460 C.ar    1  LIG1        0.0790
      3  C         -3.8310  -16.6250   14.1570 C.ar    1  LIG1        0.0380
      4  C         -4.3530  -15.3560   14.4020 C.ar    1  LIG1        0.0100
      5  C         -4.1440  -14.7420   15.6370 C.ar    1  LIG1       -0.0490
      6  C         -3.4110  -15.3980   16.6260 C.ar    1  LIG1        0.0100
      7  C         -2.8890  -16.6680   16.3810 C.ar    1  LIG1        0.0380
      8  C         -4.7070  -13.3700   15.9020 C.3     1  LIG1        0.1490
      9  C         -6.2000  -13.3810   16.1370 C.2     1  LIG1        0.2630
     10  O         -7.0480  -13.0540   15.3190 O.2     1  LIG1       -0.2650
     11  O         -6.4600  -13.8190   17.4140 O.3     1  LIG1       -0.3120
     12  C         -7.4740  -14.7920   17.5450 C.3     1  LIG1        0.2810
     13  C         -6.8540  -16.1740   17.5640 C.2     1  LIG1        0.2430
     14  O         -6.2370  -16.5340   18.5710 O.2     1  LIG1       -0.2710
     15  N         -7.0270  -16.9710   16.4320 N.am    1  LIG1       -0.3590
     16  C         -7.7620  -16.5870   15.2300 C.3     1  LIG1        0.1520
     17  C         -6.4560  -18.3120   16.4070 C.3     1  LIG1        0.1520
     18  C         -1.6400  -18.5640   13.8830 C.2     1  LIG1        0.2980
     19  O         -1.8690  -18.8130   12.7090 O.2     1  LIG1       -0.2590
     20  C         -0.2780  -18.2820   14.4030 C.ar    1  LIG1        0.0400
     21  C          0.6110  -17.5170   13.6490 C.ar    1  LIG1        0.0200
     22  C          1.8900  -17.2510   14.1370 C.ar    1  LIG1        0.0330
     23  C          2.2800  -17.7500   15.3800 C.ar    1  LIG1        0.0750
     24  C          1.3910  -18.5150   16.1350 C.ar    1  LIG1        0.0330
     25  C          0.1120  -18.7810   15.6460 C.ar    1  LIG1        0.0200
     26  N          3.5630  -17.4830   15.8700 N.pl3   1  LIG1       -0.0660
     27  C          3.7550  -16.4040   16.5900 C.cat   1  LIG1        0.6920
     28  N          2.8170  -15.4580   16.9420 N.pl3   1  LIG1       -0.2330
     29  N          5.0010  -16.1060   17.0900 N.pl3   1  LIG1       -0.2330
     30  H          1.8840  -15.5560   16.6450 H       1  LIG1        0.1740
     31  H          3.0810  -14.6840   17.4900 H       1  LIG1        0.1740
     32  H          5.7600  -16.7050   16.9100 H       1  LIG1        0.1740
     33  H          5.1320  -15.2930   17.6300 H       1  LIG1        0.1740
@<TRIPOS>BOND
     1    19    18    2
     2    21    22   ar
     3    21    20   ar
     4    18    20    1
     5    18     1    1
     6    22    23   ar
     7     3     4   ar
     8     3     2   ar
     9     4     5   ar
    10    20    25   ar
    11     1     2    1
    12     2     7   ar
    13    16    15    1
    14    10     9    2
    15    23    26    1
    16    23    24   ar
    17     5     8    1
    18     5     6   ar
    19    25    24   ar
    20    26    27    2
    21     8     9    1
    22     9    11    1
    23     7     6   ar
    24    17    15    1
    25    15    13   am
    26    27    28    1
    27    27    29    1
    28    30    28    1
    29    32    29    1
    30    28    31    1
    31    29    33    1
    32    11    12    1
    33    12    13    1
    34    13    14    2
@<TRIPOS>MOLECULE
./../dock_file/temp/9f6a3161eb4a362e535671bfaeb94ee7/Camostat_Ligand_CID_2536:hmTMPRSS9:20230418095913/Camostat_Ligand_CID_2536:hmTMPRSS9_out_4.pdbqt
 33 34 0 0 0
SMALL
GASTEIGER

@<TRIPOS>ATOM
      1  O         -3.0240   -4.3190    6.7830 O.3     1  LIG1       -0.2750
      2  C         -2.8640   -5.3980    5.9700 C.ar    1  LIG1        0.0790
      3  C         -3.7080   -6.5020    6.1010 C.ar    1  LIG1        0.0380
      4  C         -3.5440   -7.6080    5.2680 C.ar    1  LIG1        0.0100
      5  C         -2.5370   -7.6110    4.3030 C.ar    1  LIG1       -0.0490
      6  C         -1.6940   -6.5080    4.1720 C.ar    1  LIG1        0.0100
      7  C         -1.8580   -5.4010    5.0050 C.ar    1  LIG1        0.0380
      8  C         -2.3600   -8.8060    3.4020 C.3     1  LIG1        0.1490
      9  C         -1.6870   -9.9690    4.0920 C.2     1  LIG1        0.2630
     10  O         -2.0410  -11.1370    4.0210 O.2     1  LIG1       -0.2650
     11  O         -0.6100   -9.5130    4.8160 O.3     1  LIG1       -0.3120
     12  C         -0.2920  -10.2370    5.9850 C.3     1  LIG1        0.2810
     13  C         -1.1320   -9.7340    7.1400 C.2     1  LIG1        0.2430
     14  O         -1.0780   -8.5370    7.4370 O.2     1  LIG1       -0.2710
     15  N         -1.9360  -10.6630    7.8020 N.am    1  LIG1       -0.3590
     16  C         -2.0380  -12.0830    7.4710 C.3     1  LIG1        0.1520
     17  C         -2.7690  -10.2250    8.9150 C.3     1  LIG1        0.1520
     18  C         -4.2480   -3.6620    6.6330 C.2     1  LIG1        0.2980
     19  O         -4.8170   -3.4500    5.5730 O.2     1  LIG1       -0.2590
     20  C         -4.7850   -3.2240    7.9470 C.ar    1  LIG1        0.0400
     21  C         -5.4560   -2.0060    8.0550 C.ar    1  LIG1        0.0200
     22  C         -5.9610   -1.5960    9.2880 C.ar    1  LIG1        0.0330
     23  C         -5.7950   -2.4020   10.4140 C.ar    1  LIG1        0.0750
     24  C         -5.1240   -3.6200   10.3060 C.ar    1  LIG1        0.0330
     25  C         -4.6190   -4.0310    9.0730 C.ar    1  LIG1        0.0200
     26  N         -6.3010   -1.9900   11.6510 N.pl3   1  LIG1       -0.0660
     27  C         -7.5830   -2.1300   11.8900 C.cat   1  LIG1        0.6920
     28  N         -8.5370   -2.6530   11.0430 N.pl3   1  LIG1       -0.2330
     29  N         -8.1210   -1.7380   13.0930 N.pl3   1  LIG1       -0.2330
     30  H         -8.2810   -2.9700   10.1480 H       1  LIG1        0.1740
     31  H         -9.4770   -2.7070   11.3350 H       1  LIG1        0.1740
     32  H         -7.5420   -1.3470   13.7860 H       1  LIG1        0.1740
     33  H         -9.0850   -1.8480   13.2600 H       1  LIG1        0.1740
@<TRIPOS>BOND
     1     8     9    1
     2     8     5    1
     3    10     9    2
     4     9    11    1
     5     6     5   ar
     6     6     7   ar
     7     5     4   ar
     8    11    12    1
     9     7     2   ar
    10     4     3   ar
    11    19    18    2
    12     2     3   ar
    13     2     1    1
    14    12    13    1
    15    18     1    1
    16    18    20    1
    17    13    14    2
    18    13    15   am
    19    16    15    1
    20    15    17    1
    21    20    21   ar
    22    20    25   ar
    23    21    22   ar
    24    25    24   ar
    25    22    23   ar
    26    30    28    1
    27    24    23   ar
    28    23    26    1
    29    28    31    1
    30    28    27    1
    31    26    27    2
    32    27    29    1
    33    29    33    1
    34    29    32    1
@<TRIPOS>MOLECULE
./../dock_file/temp/9f6a3161eb4a362e535671bfaeb94ee7/Camostat_Ligand_CID_2536:hmTMPRSS9:20230418095913/Camostat_Ligand_CID_2536:hmTMPRSS9_out_4.pdbqt
 33 34 0 0 0
SMALL
GASTEIGER

@<TRIPOS>ATOM
      1  O          1.4150  -11.3160    6.6840 O.3     1  LIG1       -0.2750
      2  C          0.0910  -11.0060    6.6320 C.ar    1  LIG1        0.0790
      3  C         -0.3800  -10.1150    5.6670 C.ar    1  LIG1        0.0380
      4  C         -1.7370   -9.7980    5.6140 C.ar    1  LIG1        0.0100
      5  C         -2.6240  -10.3720    6.5250 C.ar    1  LIG1       -0.0490
      6  C         -2.1520  -11.2630    7.4900 C.ar    1  LIG1        0.0100
      7  C         -0.7950  -11.5800    7.5430 C.ar    1  LIG1        0.0380
      8  C         -4.0900  -10.0300    6.4680 C.3     1  LIG1        0.1490
      9  C         -4.4390   -8.7980    7.2710 C.2     1  LIG1        0.2630
     10  O         -4.5530   -8.7540    8.4870 O.2     1  LIG1       -0.2650
     11  O         -4.6080   -7.7300    6.4210 O.3     1  LIG1       -0.3120
     12  C         -4.1010   -6.4910    6.8690 C.3     1  LIG1        0.2810
     13  C         -2.7820   -6.2020    6.1830 C.2     1  LIG1        0.2430
     14  O         -1.7360   -6.5440    6.7400 O.2     1  LIG1       -0.2710
     15  N         -2.8290   -5.5670    4.9410 N.am    1  LIG1       -0.3590
     16  C         -4.0470   -5.1600    4.2430 C.3     1  LIG1        0.1520
     17  C         -1.5860   -5.2760    4.2380 C.3     1  LIG1        0.1520
     18  C          1.8710  -12.0730    5.6020 C.2     1  LIG1        0.2980
     19  O          1.3390  -13.0810    5.1630 O.2     1  LIG1       -0.2590
     20  C          3.1230  -11.5050    5.0410 C.ar    1  LIG1        0.0400
     21  C          3.0790  -10.3370    4.2800 C.ar    1  LIG1        0.0200
     22  C          4.2560   -9.8030    3.7540 C.ar    1  LIG1        0.0330
     23  C          5.4760  -10.4370    3.9860 C.ar    1  LIG1        0.0750
     24  C          5.5200  -11.6060    4.7470 C.ar    1  LIG1        0.0330
     25  C          4.3440  -12.1400    5.2740 C.ar    1  LIG1        0.0200
     26  N          6.6550   -9.9020    3.4580 N.pl3   1  LIG1       -0.0660
     27  C          7.2600   -8.9370    4.1080 C.cat   1  LIG1        0.6920
     28  N          6.8680   -8.3570    5.2950 N.pl3   1  LIG1       -0.2330
     29  N          8.4220   -8.3840    3.6230 N.pl3   1  LIG1       -0.2330
     30  H          6.0500   -8.6640    5.7470 H       1  LIG1        0.1740
     31  H          7.4070   -7.6340    5.6910 H       1  LIG1        0.1740
     32  H          8.8080   -8.7120    2.7800 H       1  LIG1        0.1740
     33  H          8.8670   -7.6600    4.1210 H       1  LIG1        0.1740
@<TRIPOS>BOND
     1    32    29    1
     2    26    23    1
     3    26    27    2
     4    29    27    1
     5    29    33    1
     6    22    23   ar
     7    22    21   ar
     8    23    24   ar
     9    27    28    1
    10    17    15    1
    11    16    15    1
    12    21    20   ar
    13    24    25   ar
    14    15    13   am
    15    20    25   ar
    16    20    18    1
    17    19    18    2
    18    28    31    1
    19    28    30    1
    20    18     1    1
    21     4     3   ar
    22     4     5   ar
    23     3     2   ar
    24    13    14    2
    25    13    12    1
    26    11    12    1
    27    11     9    1
    28     8     5    1
    29     8     9    1
    30     5     6   ar
    31     2     1    1
    32     2     7   ar
    33     9    10    2
    34     6     7   ar
@<TRIPOS>MOLECULE
./../dock_file/temp/9f6a3161eb4a362e535671bfaeb94ee7/Camostat_Ligand_CID_2536:hmTMPRSS9:20230418095913/Camostat_Ligand_CID_2536:hmTMPRSS9_out_4.pdbqt
 33 34 0 0 0
SMALL
GASTEIGER

@<TRIPOS>ATOM
      1  O         -1.6150   -7.5710    6.7560 O.3     1  LIG1       -0.2750
      2  C         -2.0390   -6.4770    6.0660 C.ar    1  LIG1        0.0790
      3  C         -2.4600   -6.6070    4.7420 C.ar    1  LIG1        0.0380
      4  C         -2.8950   -5.4870    4.0360 C.ar    1  LIG1        0.0100
      5  C         -2.9120   -4.2350    4.6530 C.ar    1  LIG1       -0.0490
      6  C         -2.4910   -4.1060    5.9770 C.ar    1  LIG1        0.0100
      7  C         -2.0550   -5.2270    6.6830 C.ar    1  LIG1        0.0380
      8  C         -3.3820   -3.0250    3.8900 C.3     1  LIG1        0.1490
      9  C         -4.8870   -2.8990    3.8530 C.2     1  LIG1        0.2630
     10  O         -5.6170   -3.3770    2.9960 O.2     1  LIG1       -0.2650
     11  O         -5.3130   -2.1650    4.9340 O.3     1  LIG1       -0.3120
     12  C         -6.1690   -2.8280    5.8400 C.3     1  LIG1        0.2810
     13  C         -5.6130   -2.7110    7.2440 C.2     1  LIG1        0.2430
     14  O         -5.3550   -1.5890    7.6890 O.2     1  LIG1       -0.2710
     15  N         -5.4320   -3.8930    7.9640 N.am    1  LIG1       -0.3590
     16  C         -5.7400   -5.2360    7.4780 C.3     1  LIG1        0.1520
     17  C         -4.9080   -3.8310    9.3220 C.3     1  LIG1        0.1520
     18  C         -2.6270   -8.4780    7.0750 C.2     1  LIG1        0.2980
     19  O         -3.8070   -8.2030    7.2340 O.2     1  LIG1       -0.2590
     20  C         -2.0870   -9.8540    7.2200 C.ar    1  LIG1        0.0400
     21  C         -0.7110  -10.0570    7.3090 C.ar    1  LIG1        0.0200
     22  C         -0.2040  -11.3490    7.4450 C.ar    1  LIG1        0.0330
     23  C         -1.0730  -12.4390    7.4920 C.ar    1  LIG1        0.0750
     24  C         -2.4510  -12.2360    7.4030 C.ar    1  LIG1        0.0330
     25  C         -2.9580  -10.9440    7.2660 C.ar    1  LIG1        0.0200
     26  N         -0.5640  -13.7350    7.6280 N.pl3   1  LIG1       -0.0660
     27  C         -0.2270  -14.4000    6.5500 C.cat   1  LIG1        0.6920
     28  N         -0.3120  -13.9710    5.2430 N.pl3   1  LIG1       -0.2330
     29  N          0.2770  -15.6760    6.6410 N.pl3   1  LIG1       -0.2330
     30  H         -0.6590  -13.0720    5.0420 H       1  LIG1        0.1740
     31  H         -0.0280  -14.5640    4.5110 H       1  LIG1        0.1740
     32  H          0.3890  -16.1000    7.5220 H       1  LIG1        0.1740
     33  H          0.5270  -16.1660    5.8240 H       1  LIG1        0.1740
@<TRIPOS>BOND
     1    10     9    2
     2     9     8    1
     3     9    11    1
     4     8     5    1
     5     4     5   ar
     6     4     3   ar
     7    31    28    1
     8     5     6   ar
     9     3     2   ar
    10    11    12    1
    11    30    28    1
    12    28    27    1
    13    33    29    1
    14    12    13    1
    15     6     7   ar
    16     2     7   ar
    17     2     1    1
    18    27    29    1
    19    27    26    2
    20    29    32    1
    21     1    18    1
    22    18    20    1
    23    18    19    2
    24    20    25   ar
    25    20    21   ar
    26    13    14    2
    27    13    15   am
    28    25    24   ar
    29    21    22   ar
    30    24    23   ar
    31    22    23   ar
    32    16    15    1
    33    23    26    1
    34    15    17    1
@<TRIPOS>MOLECULE
./../dock_file/temp/9f6a3161eb4a362e535671bfaeb94ee7/Camostat_Ligand_CID_2536:hmTMPRSS9:20230418095913/Camostat_Ligand_CID_2536:hmTMPRSS9_out_4.pdbqt
 33 34 0 0 0
SMALL
GASTEIGER

@<TRIPOS>ATOM
      1  O          0.4730  -21.1270   21.5480 O.3     1  LIG1       -0.2750
      2  C          0.4790  -21.0040   20.1930 C.ar    1  LIG1        0.0790
      3  C          1.6900  -20.9460   19.5030 C.ar    1  LIG1        0.0380
      4  C          1.6960  -20.8200   18.1140 C.ar    1  LIG1        0.0100
      5  C          0.4910  -20.7520   17.4140 C.ar    1  LIG1       -0.0490
      6  C         -0.7200  -20.8100   18.1050 C.ar    1  LIG1        0.0100
      7  C         -0.7260  -20.9360   19.4940 C.ar    1  LIG1        0.0380
      8  C          0.4980  -20.6160   15.9140 C.3     1  LIG1        0.1490
      9  C          0.3380  -19.1860   15.4520 C.2     1  LIG1        0.2630
     10  O         -0.7140  -18.6650   15.1090 O.2     1  LIG1       -0.2650
     11  O          1.5610  -18.5570   15.4760 O.3     1  LIG1       -0.3120
     12  C          1.5750  -17.2060   15.0660 C.3     1  LIG1        0.2810
     13  C          1.9830  -16.3250   16.2290 C.2     1  LIG1        0.2430
     14  O          1.1290  -16.0040   17.0590 O.2     1  LIG1       -0.2710
     15  N          3.3210  -15.9320   16.2990 N.am    1  LIG1       -0.3590
     16  C          4.3640  -16.3040   15.3460 C.3     1  LIG1        0.1520
     17  C          3.7630  -15.0920   17.4040 C.3     1  LIG1        0.1520
     18  C          0.5550  -19.9140   22.2360 C.2     1  LIG1        0.2980
     19  O         -0.2440  -18.9930   22.1550 O.2     1  LIG1       -0.2590
     20  C          1.7690  -19.8640   23.0900 C.ar    1  LIG1        0.0400
     21  C          2.6880  -20.9120   23.0570 C.ar    1  LIG1        0.0200
     22  C          3.8290  -20.8650   23.8590 C.ar    1  LIG1        0.0330
     23  C          4.0500  -19.7700   24.6940 C.ar    1  LIG1        0.0750
     24  C          3.1310  -18.7210   24.7270 C.ar    1  LIG1        0.0330
     25  C          1.9900  -18.7680   23.9250 C.ar    1  LIG1        0.0200
     26  N          5.1940  -19.7220   25.4970 N.pl3   1  LIG1       -0.0660
     27  C          5.2070  -20.3960   26.6220 C.cat   1  LIG1        0.6920
     28  N          4.1960  -21.1780   27.1380 N.pl3   1  LIG1       -0.2330
     29  N          6.3110  -20.3760   27.4410 N.pl3   1  LIG1       -0.2330
     30  H          3.3490  -21.2750   26.6470 H       1  LIG1        0.1740
     31  H          4.3210  -21.6390   27.9990 H       1  LIG1        0.1740
     32  H          7.1040  -19.8530   27.1850 H       1  LIG1        0.1740
     33  H          6.3090  -20.8870   28.2830 H       1  LIG1        0.1740
@<TRIPOS>BOND
     1    12    11    1
     2    12    13    1
     3    10     9    2
     4    16    15    1
     5     9    11    1
     6     9     8    1
     7     8     5    1
     8    13    15   am
     9    13    14    2
    10    15    17    1
    11     5     6   ar
    12     5     4   ar
    13     6     7   ar
    14     4     3   ar
    15     7     2   ar
    16     3     2   ar
    17     2     1    1
    18     1    18    1
    19    19    18    2
    20    18    20    1
    21    21    20   ar
    22    21    22   ar
    23    20    25   ar
    24    22    23   ar
    25    25    24   ar
    26    23    24   ar
    27    23    26    1
    28    26    27    2
    29    27    28    1
    30    27    29    1
    31    30    28    1
    32    28    31    1
    33    32    29    1
    34    29    33    1
@<TRIPOS>MOLECULE
./../dock_file/temp/9f6a3161eb4a362e535671bfaeb94ee7/Camostat_Ligand_CID_2536:hmTMPRSS9:20230418095913/Camostat_Ligand_CID_2536:hmTMPRSS9_out_4.pdbqt
 33 34 0 0 0
SMALL
GASTEIGER

@<TRIPOS>ATOM
      1  O          9.0300  -20.8950   12.8940 O.3     1  LIG1       -0.2750
      2  C          7.9600  -21.3020   12.1580 C.ar    1  LIG1        0.0790
      3  C          6.9310  -22.0230   12.7630 C.ar    1  LIG1        0.0380
      4  C          5.8350  -22.4400   12.0080 C.ar    1  LIG1        0.0100
      5  C          5.7670  -22.1350   10.6480 C.ar    1  LIG1       -0.0490
      6  C          6.7970  -21.4140   10.0440 C.ar    1  LIG1        0.0100
      7  C          7.8940  -20.9970   10.7990 C.ar    1  LIG1        0.0380
      8  C          4.5830  -22.5850    9.8330 C.3     1  LIG1        0.1490
      9  C          3.9120  -21.4520    9.0940 C.2     1  LIG1        0.2630
     10  O          3.8590  -21.3310    7.8780 O.2     1  LIG1       -0.2650
     11  O          3.3650  -20.5740    9.9990 O.3     1  LIG1       -0.3120
     12  C          2.1910  -21.0030   10.6550 C.3     1  LIG1        0.2810
     13  C          2.1550  -20.4380   12.0590 C.2     1  LIG1        0.2430
     14  O          2.7950  -21.0090   12.9460 O.2     1  LIG1       -0.2710
     15  N          1.3990  -19.2840   12.2680 N.am    1  LIG1       -0.3590
     16  C          0.6400  -18.5710   11.2420 C.3     1  LIG1        0.1520
     17  C          1.3410  -18.6970   13.6000 C.3     1  LIG1        0.1520
     18  C         10.2460  -21.4600   12.5020 C.2     1  LIG1        0.2980
     19  O         10.4750  -22.6550   12.3960 O.2     1  LIG1       -0.2590
     20  C         11.2630  -20.4110   12.2370 C.ar    1  LIG1        0.0400
     21  C         12.6210  -20.7170   12.3280 C.ar    1  LIG1        0.0200
     22  C         13.5760  -19.7310   12.0780 C.ar    1  LIG1        0.0330
     23  C         13.1740  -18.4390   11.7400 C.ar    1  LIG1        0.0750
     24  C         11.8160  -18.1330   11.6500 C.ar    1  LIG1        0.0330
     25  C         10.8610  -19.1180   11.8990 C.ar    1  LIG1        0.0200
     26  N         14.1320  -17.4510   11.4900 N.pl3   1  LIG1       -0.0660
     27  C         14.3470  -16.5320   12.4000 C.cat   1  LIG1        0.6920
     28  N         13.7250  -16.4080   13.6240 N.pl3   1  LIG1       -0.2330
     29  N         15.2800  -15.5430   12.1940 N.pl3   1  LIG1       -0.2330
     30  H         13.0340  -17.0550   13.8930 H       1  LIG1        0.1740
     31  H         13.9710  -15.6700   14.2280 H       1  LIG1        0.1740
     32  H         15.7960  -15.5210   11.3560 H       1  LIG1        0.1740
     33  H         15.4330  -14.8590   12.8850 H       1  LIG1        0.1740
@<TRIPOS>BOND
     1    10     9    2
     2     9     8    1
     3     9    11    1
     4     8     5    1
     5    11    12    1
     6     6     5   ar
     7     6     7   ar
     8     5     4   ar
     9    12    13    1
    10     7     2   ar
    11    16    15    1
    12    32    29    1
    13    26    23    1
    14    26    27    2
    15    24    23   ar
    16    24    25   ar
    17    23    22   ar
    18    25    20   ar
    19     4     3   ar
    20    13    15   am
    21    13    14    2
    22    22    21   ar
    23     2     3   ar
    24     2     1    1
    25    29    27    1
    26    29    33    1
    27    20    21   ar
    28    20    18    1
    29    15    17    1
    30    19    18    2
    31    27    28    1
    32    18     1    1
    33    28    30    1
    34    28    31    1
@<TRIPOS>MOLECULE
./../dock_file/temp/9f6a3161eb4a362e535671bfaeb94ee7/Camostat_Ligand_CID_2536:hmTMPRSS9:20230418095913/Camostat_Ligand_CID_2536:hmTMPRSS9_out_4.pdbqt
 33 34 0 0 0
SMALL
GASTEIGER

@<TRIPOS>ATOM
      1  O         -1.7850  -18.7990   19.3140 O.3     1  LIG1       -0.2750
      2  C         -1.2150  -18.9130   20.5450 C.ar    1  LIG1        0.0790
      3  C         -1.3770  -17.8960   21.4860 C.ar    1  LIG1        0.0380
      4  C         -0.7930  -18.0130   22.7470 C.ar    1  LIG1        0.0100
      5  C         -0.0480  -19.1480   23.0680 C.ar    1  LIG1       -0.0490
      6  C          0.1130  -20.1650   22.1270 C.ar    1  LIG1        0.0100
      7  C         -0.4710  -20.0480   20.8660 C.ar    1  LIG1        0.0380
      8  C          0.5820  -19.2750   24.4310 C.3     1  LIG1        0.1490
      9  C          2.0230  -18.8200   24.4580 C.2     1  LIG1        0.2630
     10  O          2.5000  -17.9370   23.7580 O.2     1  LIG1       -0.2650
     11  O          2.7180  -19.5510   25.3920 O.3     1  LIG1       -0.3120
     12  C          4.0620  -19.8470   25.0790 C.3     1  LIG1        0.2810
     13  C          4.3110  -21.3310   25.2570 C.2     1  LIG1        0.2430
     14  O          4.6670  -21.7440   26.3640 O.2     1  LIG1       -0.2710
     15  N          4.1110  -22.1530   24.1470 N.am    1  LIG1       -0.3590
     16  C          3.6760  -21.7030   22.8270 C.3     1  LIG1        0.1520
     17  C          4.3290  -23.5890   24.2720 C.3     1  LIG1        0.1520
     18  C         -1.1190  -19.5000   18.3060 C.2     1  LIG1        0.2980
     19  O         -1.4720  -20.5680   17.8280 O.2     1  LIG1       -0.2590
     20  C          0.1110  -18.7850   17.8790 C.ar    1  LIG1        0.0400
     21  C          0.0690  -17.4150   17.6270 C.ar    1  LIG1        0.0200
     22  C          1.2240  -16.7440   17.2270 C.ar    1  LIG1        0.0330
     23  C          2.4220  -17.4430   17.0790 C.ar    1  LIG1        0.0750
     24  C          2.4640  -18.8140   17.3310 C.ar    1  LIG1        0.0330
     25  C          1.3090  -19.4860   17.7310 C.ar    1  LIG1        0.0200
     26  N          3.5810  -16.7700   16.6770 N.pl3   1  LIG1       -0.0660
     27  C          3.6850  -16.3760   15.4310 C.cat   1  LIG1        0.6920
     28  N          2.7630  -16.5470   14.4210 N.pl3   1  LIG1       -0.2330
     29  N          4.8080  -15.7110   14.9960 N.pl3   1  LIG1       -0.2330
     30  H          1.9150  -17.0100   14.6030 H       1  LIG1        0.1740
     31  H          2.9550  -16.2070   13.5170 H       1  LIG1        0.1740
     32  H          5.5430  -15.5250   15.6230 H       1  LIG1        0.1740
     33  H          4.8750  -15.4210   14.0580 H       1  LIG1        0.1740
@<TRIPOS>BOND
     1    31    28    1
     2    33    29    1
     3    28    30    1
     4    28    27    1
     5    29    27    1
     6    29    32    1
     7    27    26    2
     8    26    23    1
     9    23    22   ar
    10    23    24   ar
    11    22    21   ar
    12    24    25   ar
    13    21    20   ar
    14    25    20   ar
    15    19    18    2
    16    20    18    1
    17    18     1    1
    18     1     2    1
    19     2     7   ar
    20     2     3   ar
    21     7     6   ar
    22     3     4   ar
    23     6     5   ar
    24     4     5   ar
    25    16    15    1
    26     5     8    1
    27    10     9    2
    28    15    17    1
    29    15    13   am
    30     8     9    1
    31     9    11    1
    32    12    13    1
    33    12    11    1
    34    13    14    2
