@<TRIPOS>MOLECULE
./../dock_file/temp/9f6a3161eb4a362e535671bfaeb94ee7/Camostat_Ligand_CID_2536:hmTMPRSS9:20230418095913/Camostat_Ligand_CID_2536:hmTMPRSS9_out_2.pdbqt
 33 34 0 0 0
SMALL
GASTEIGER

@<TRIPOS>ATOM
      1  O         13.9590   -7.9540   33.6570 O.3     1  LIG1       -0.2750
      2  C         14.6340   -6.9700   33.0030 C.ar    1  LIG1        0.0790
      3  C         15.4440   -7.2840   31.9120 C.ar    1  LIG1        0.0380
      4  C         16.1350   -6.2750   31.2420 C.ar    1  LIG1        0.0100
      5  C         16.0150   -4.9500   31.6620 C.ar    1  LIG1       -0.0490
      6  C         15.2050   -4.6350   32.7530 C.ar    1  LIG1        0.0100
      7  C         14.5140   -5.6450   33.4230 C.ar    1  LIG1        0.0380
      8  C         16.7610   -3.8600   30.9380 C.3     1  LIG1        0.1490
      9  C         16.0000   -3.3100   29.7540 C.2     1  LIG1        0.2630
     10  O         15.1060   -2.4770   29.8110 O.2     1  LIG1       -0.2650
     11  O         16.4670   -3.8910   28.5990 O.3     1  LIG1       -0.3120
     12  C         15.5580   -4.7190   27.9050 C.3     1  LIG1        0.2810
     13  C         16.3070   -5.8640   27.2540 C.2     1  LIG1        0.2430
     14  O         16.7530   -6.7640   27.9700 O.2     1  LIG1       -0.2710
     15  N         16.4420   -5.8360   25.8650 N.am    1  LIG1       -0.3590
     16  C         15.9160   -4.7960   24.9840 C.3     1  LIG1        0.1520
     17  C         17.1470   -6.9190   25.1930 C.3     1  LIG1        0.1520
     18  C         12.7880   -8.3700   33.0190 C.2     1  LIG1        0.2980
     19  O         12.0000   -7.6440   32.4320 O.2     1  LIG1       -0.2590
     20  C         12.5960   -9.8360   33.1550 C.ar    1  LIG1        0.0400
     21  C         11.3330  -10.3950   32.9640 C.ar    1  LIG1        0.0200
     22  C         11.1530  -11.7720   33.0910 C.ar    1  LIG1        0.0330
     23  C         12.2360  -12.5910   33.4100 C.ar    1  LIG1        0.0750
     24  C         13.5000  -12.0330   33.6020 C.ar    1  LIG1        0.0330
     25  C         13.6800  -10.6550   33.4750 C.ar    1  LIG1        0.0200
     26  N         12.0550  -13.9720   33.5380 N.pl3   1  LIG1       -0.0660
     27  C         11.6370  -14.4540   34.6840 C.cat   1  LIG1        0.6920
     28  N         11.3410  -13.7450   35.8280 N.pl3   1  LIG1       -0.2330
     29  N         11.4470  -15.8050   34.8500 N.pl3   1  LIG1       -0.2330
     30  H         11.4370  -12.7660   35.8400 H       1  LIG1        0.1740
     31  H         11.0340  -14.2200   36.6350 H       1  LIG1        0.1740
     32  H         11.6240  -16.4230   34.1050 H       1  LIG1        0.1740
     33  H         11.1330  -16.1550   35.7160 H       1  LIG1        0.1740
@<TRIPOS>BOND
     1    16    15    1
     2    17    15    1
     3    15    13   am
     4    13    12    1
     5    13    14    2
     6    12    11    1
     7    11     9    1
     8     9    10    2
     9     9     8    1
    10     8     5    1
    11     4     5   ar
    12     4     3   ar
    13     5     6   ar
    14     3     2   ar
    15    19    18    2
    16     6     7   ar
    17    21    22   ar
    18    21    20   ar
    19     2     7   ar
    20     2     1    1
    21    18    20    1
    22    18     1    1
    23    22    23   ar
    24    20    25   ar
    25    23    26    1
    26    23    24   ar
    27    25    24   ar
    28    26    27    2
    29    32    29    1
    30    27    29    1
    31    27    28    1
    32    29    33    1
    33    28    30    1
    34    28    31    1
@<TRIPOS>MOLECULE
./../dock_file/temp/9f6a3161eb4a362e535671bfaeb94ee7/Camostat_Ligand_CID_2536:hmTMPRSS9:20230418095913/Camostat_Ligand_CID_2536:hmTMPRSS9_out_2.pdbqt
 33 34 0 0 0
SMALL
GASTEIGER

@<TRIPOS>ATOM
      1  O         11.8670   -9.2920   32.6710 O.3     1  LIG1       -0.2750
      2  C         12.4370  -10.4640   33.0660 C.ar    1  LIG1        0.0790
      3  C         11.6410  -11.5900   33.2790 C.ar    1  LIG1        0.0380
      4  C         12.2250  -12.7890   33.6830 C.ar    1  LIG1        0.0100
      5  C         13.6050  -12.8650   33.8740 C.ar    1  LIG1       -0.0490
      6  C         14.4010  -11.7380   33.6600 C.ar    1  LIG1        0.0100
      7  C         13.8160  -10.5380   33.2560 C.ar    1  LIG1        0.0380
      8  C         14.2370  -14.1610   34.3100 C.3     1  LIG1        0.1490
      9  C         13.4390  -15.3750   33.8930 C.2     1  LIG1        0.2630
     10  O         12.3860  -15.7380   34.3980 O.2     1  LIG1       -0.2650
     11  O         14.0790  -16.0100   32.8550 O.3     1  LIG1       -0.3120
     12  C         14.4650  -17.3480   33.0860 C.3     1  LIG1        0.2810
     13  C         14.6060  -18.0720   31.7630 C.2     1  LIG1        0.2430
     14  O         13.6600  -18.0520   30.9710 O.2     1  LIG1       -0.2710
     15  N         15.8160  -18.7200   31.5110 N.am    1  LIG1       -0.3590
     16  C         16.9630  -18.7540   32.4160 C.3     1  LIG1        0.1520
     17  C         16.0020  -19.4230   30.2480 C.3     1  LIG1        0.1520
     18  C         12.0900   -8.2230   33.5420 C.2     1  LIG1        0.2980
     19  O         11.7780   -8.1880   34.7220 O.2     1  LIG1       -0.2590
     20  C         12.7560   -7.0940   32.8440 C.ar    1  LIG1        0.0400
     21  C         12.0260   -6.2850   31.9730 C.ar    1  LIG1        0.0200
     22  C         12.6510   -5.2240   31.3180 C.ar    1  LIG1        0.0330
     23  C         14.0060   -4.9720   31.5320 C.ar    1  LIG1        0.0750
     24  C         14.7360   -5.7810   32.4030 C.ar    1  LIG1        0.0330
     25  C         14.1110   -6.8420   33.0580 C.ar    1  LIG1        0.0200
     26  N         14.6330   -3.9080   30.8750 N.pl3   1  LIG1       -0.0660
     27  C         15.3670   -4.1610   29.8170 C.cat   1  LIG1        0.6920
     28  N         15.6120   -5.3900   29.2460 N.pl3   1  LIG1       -0.2330
     29  N         15.9990   -3.1430   29.1430 N.pl3   1  LIG1       -0.2330
     30  H         15.2160   -6.2020   29.6350 H       1  LIG1        0.1740
     31  H         16.1840   -5.4560   28.4470 H       1  LIG1        0.1740
     32  H         15.9040   -2.2140   29.4510 H       1  LIG1        0.1740
     33  H         16.5480   -3.3450   28.3500 H       1  LIG1        0.1740
@<TRIPOS>BOND
     1    33    29    1
     2    31    28    1
     3    29    32    1
     4    29    27    1
     5    28    30    1
     6    28    27    1
     7    27    26    2
     8    17    15    1
     9    26    23    1
    10    14    13    2
    11    22    23   ar
    12    22    21   ar
    13    15    13   am
    14    15    16    1
    15    23    24   ar
    16    13    12    1
    17    21    20   ar
    18    24    25   ar
    19     1     2    1
    20     1    18    1
    21    20    25   ar
    22    20    18    1
    23    11    12    1
    24    11     9    1
    25     2     7   ar
    26     2     3   ar
    27     7     6   ar
    28     3     4   ar
    29    18    19    2
    30     6     5   ar
    31     4     5   ar
    32     5     8    1
    33     9     8    1
    34     9    10    2
@<TRIPOS>MOLECULE
./../dock_file/temp/9f6a3161eb4a362e535671bfaeb94ee7/Camostat_Ligand_CID_2536:hmTMPRSS9:20230418095913/Camostat_Ligand_CID_2536:hmTMPRSS9_out_2.pdbqt
 33 34 0 0 0
SMALL
GASTEIGER

@<TRIPOS>ATOM
      1  O         11.9680   -9.2270   32.5130 O.3     1  LIG1       -0.2750
      2  C         12.2370  -10.4090   33.1300 C.ar    1  LIG1        0.0790
      3  C         13.5020  -10.6440   33.6690 C.ar    1  LIG1        0.0380
      4  C         13.7780  -11.8560   34.3010 C.ar    1  LIG1        0.0100
      5  C         12.7880  -12.8340   34.3970 C.ar    1  LIG1       -0.0490
      6  C         11.5220  -12.5990   33.8580 C.ar    1  LIG1        0.0100
      7  C         11.2470  -11.3870   33.2260 C.ar    1  LIG1        0.0380
      8  C         13.0850  -14.1430   35.0800 C.3     1  LIG1        0.1490
      9  C         12.9530  -15.3320   34.1570 C.2     1  LIG1        0.2630
     10  O         13.7050  -15.5970   33.2310 O.2     1  LIG1       -0.2650
     11  O         11.8540  -16.0750   34.5200 O.3     1  LIG1       -0.3120
     12  C         11.6100  -16.1930   35.9060 C.3     1  LIG1        0.2810
     13  C         10.1910  -16.6690   36.1350 C.2     1  LIG1        0.2430
     14  O          9.9520  -17.8780   36.0670 O.2     1  LIG1       -0.2710
     15  N          9.2270  -15.7010   36.4220 N.am    1  LIG1       -0.3590
     16  C          9.4740  -14.2650   36.5260 C.3     1  LIG1        0.1520
     17  C          7.8490  -16.1120   36.6580 C.3     1  LIG1        0.1520
     18  C         12.0010   -8.1160   33.3600 C.2     1  LIG1        0.2980
     19  O         11.3890   -8.0030   34.4110 O.2     1  LIG1       -0.2590
     20  C         12.8780   -7.0510   32.8110 C.ar    1  LIG1        0.0400
     21  C         12.3790   -5.7620   32.6290 C.ar    1  LIG1        0.0200
     22  C         13.2040   -4.7610   32.1140 C.ar    1  LIG1        0.0330
     23  C         14.5270   -5.0500   31.7810 C.ar    1  LIG1        0.0750
     24  C         15.0270   -6.3400   31.9640 C.ar    1  LIG1        0.0330
     25  C         14.2020   -7.3400   32.4780 C.ar    1  LIG1        0.0200
     26  N         15.3540   -4.0460   31.2650 N.pl3   1  LIG1       -0.0660
     27  C         15.3300   -3.8060   29.9760 C.cat   1  LIG1        0.6920
     28  N         14.5640   -4.4420   29.0220 N.pl3   1  LIG1       -0.2330
     29  N         16.1270   -2.8280   29.4290 N.pl3   1  LIG1       -0.2330
     30  H         13.9500   -5.1640   29.2860 H       1  LIG1        0.1740
     31  H         14.6330   -4.1730   28.0770 H       1  LIG1        0.1740
     32  H         16.7230   -2.2990   30.0060 H       1  LIG1        0.1740
     33  H         16.1000   -2.6580   28.4590 H       1  LIG1        0.1740
@<TRIPOS>BOND
     1    31    28    1
     2    33    29    1
     3    28    30    1
     4    28    27    1
     5    29    27    1
     6    29    32    1
     7    27    26    2
     8    26    23    1
     9    23    24   ar
    10    23    22   ar
    11    24    25   ar
    12    22    21   ar
    13    25    20   ar
    14     1     2    1
    15     1    18    1
    16    21    20   ar
    17    20    18    1
    18     2     7   ar
    19     2     3   ar
    20     7     6   ar
    21    10     9    2
    22    18    19    2
    23     3     4   ar
    24     6     5   ar
    25     9    11    1
    26     9     8    1
    27     4     5   ar
    28     5     8    1
    29    11    12    1
    30    12    13    1
    31    14    13    2
    32    13    15   am
    33    15    16    1
    34    15    17    1
@<TRIPOS>MOLECULE
./../dock_file/temp/9f6a3161eb4a362e535671bfaeb94ee7/Camostat_Ligand_CID_2536:hmTMPRSS9:20230418095913/Camostat_Ligand_CID_2536:hmTMPRSS9_out_2.pdbqt
 33 34 0 0 0
SMALL
GASTEIGER

@<TRIPOS>ATOM
      1  O         12.0000  -12.7180   33.3800 O.3     1  LIG1       -0.2750
      2  C         12.3970  -11.4210   33.2670 C.ar    1  LIG1        0.0790
      3  C         11.4540  -10.4210   33.0260 C.ar    1  LIG1        0.0380
      4  C         11.8600   -9.0930   32.9110 C.ar    1  LIG1        0.0100
      5  C         13.2100   -8.7620   33.0360 C.ar    1  LIG1       -0.0490
      6  C         14.1530   -9.7620   33.2760 C.ar    1  LIG1        0.0100
      7  C         13.7460  -11.0910   33.3920 C.ar    1  LIG1        0.0380
      8  C         13.6500   -7.3270   32.9110 C.3     1  LIG1        0.1490
      9  C         15.1480   -7.1780   32.7870 C.2     1  LIG1        0.2630
     10  O         15.9220   -7.0020   33.7180 O.2     1  LIG1       -0.2650
     11  O         15.5110   -7.2720   31.4650 O.3     1  LIG1       -0.3120
     12  C         16.4680   -6.3370   31.0120 C.3     1  LIG1        0.2810
     13  C         16.2520   -6.0610   29.5390 C.2     1  LIG1        0.2430
     14  O         16.5490   -6.9360   28.7210 O.2     1  LIG1       -0.2710
     15  N         15.7170   -4.8210   29.1900 N.am    1  LIG1       -0.3590
     16  C         15.3400   -3.7660   30.1280 C.3     1  LIG1        0.1520
     17  C         15.4830   -4.5120   27.7850 C.3     1  LIG1        0.1520
     18  C         12.4670  -13.3640   34.5270 C.2     1  LIG1        0.2980
     19  O         12.3490  -12.9560   35.6730 O.2     1  LIG1       -0.2590
     20  C         13.1590  -14.6320   34.1830 C.ar    1  LIG1        0.0400
     21  C         12.8940  -15.7910   34.9120 C.ar    1  LIG1        0.0200
     22  C         13.5440  -16.9820   34.5890 C.ar    1  LIG1        0.0330
     23  C         14.4590  -17.0140   33.5370 C.ar    1  LIG1        0.0750
     24  C         14.7250  -15.8550   32.8080 C.ar    1  LIG1        0.0330
     25  C         14.0750  -14.6640   33.1310 C.ar    1  LIG1        0.0200
     26  N         15.1110  -18.2090   33.2130 N.pl3   1  LIG1       -0.0660
     27  C         14.6300  -18.9510   32.2440 C.cat   1  LIG1        0.6920
     28  N         13.5190  -18.6950   31.4710 N.pl3   1  LIG1       -0.2330
     29  N         15.2410  -20.1320   31.8950 N.pl3   1  LIG1       -0.2330
     30  H         12.9910  -17.8790   31.6220 H       1  LIG1        0.1740
     31  H         13.2520  -19.3310   30.7670 H       1  LIG1        0.1740
     32  H         16.0480  -20.4290   32.3730 H       1  LIG1        0.1740
     33  H         14.8700  -20.6800   31.1650 H       1  LIG1        0.1740
@<TRIPOS>BOND
     1    17    15    1
     2    14    13    2
     3    15    13   am
     4    15    16    1
     5    13    12    1
     6    31    28    1
     7    12    11    1
     8    33    29    1
     9    11     9    1
    10    28    30    1
    11    28    27    1
    12    29    27    1
    13    29    32    1
    14    27    26    2
    15     9     8    1
    16     9    10    2
    17    24    25   ar
    18    24    23   ar
    19     4     3   ar
    20     4     5   ar
    21     8     5    1
    22     3     2   ar
    23     5     6   ar
    24    25    20   ar
    25    26    23    1
    26     2     1    1
    27     2     7   ar
    28     6     7   ar
    29     1    18    1
    30    23    22   ar
    31    20    18    1
    32    20    21   ar
    33    18    19    2
    34    22    21   ar
@<TRIPOS>MOLECULE
./../dock_file/temp/9f6a3161eb4a362e535671bfaeb94ee7/Camostat_Ligand_CID_2536:hmTMPRSS9:20230418095913/Camostat_Ligand_CID_2536:hmTMPRSS9_out_2.pdbqt
 33 34 0 0 0
SMALL
GASTEIGER

@<TRIPOS>ATOM
      1  O         14.8410   -9.7410   33.7070 O.3     1  LIG1       -0.2750
      2  C         13.8100  -10.6230   33.6040 C.ar    1  LIG1        0.0790
      3  C         12.5600  -10.1870   33.1630 C.ar    1  LIG1        0.0380
      4  C         11.5030  -11.0900   33.0580 C.ar    1  LIG1        0.0100
      5  C         11.6960  -12.4310   33.3920 C.ar    1  LIG1       -0.0490
      6  C         12.9450  -12.8670   33.8330 C.ar    1  LIG1        0.0100
      7  C         14.0030  -11.9630   33.9380 C.ar    1  LIG1        0.0380
      8  C         10.5540  -13.4080   33.2780 C.3     1  LIG1        0.1490
      9  C         10.2710  -14.1360   34.5710 C.2     1  LIG1        0.2630
     10  O         10.0010  -13.6050   35.6390 O.2     1  LIG1       -0.2650
     11  O         10.3610  -15.4920   34.3630 O.3     1  LIG1       -0.3120
     12  C         10.9570  -16.2440   35.3990 C.3     1  LIG1        0.2810
     13  C         12.4600  -16.2650   35.2120 C.2     1  LIG1        0.2430
     14  O         12.9250  -16.7910   34.1980 O.2     1  LIG1       -0.2710
     15  N         13.2390  -15.6720   36.2070 N.am    1  LIG1       -0.3590
     16  C         12.7260  -15.0270   37.4130 C.3     1  LIG1        0.1520
     17  C         14.6900  -15.6590   36.0680 C.3     1  LIG1        0.1520
     18  C         15.7270   -9.7640   32.6270 C.2     1  LIG1        0.2980
     19  O         16.2640  -10.7600   32.1670 O.2     1  LIG1       -0.2590
     20  C         15.9590   -8.3960   32.0960 C.ar    1  LIG1        0.0400
     21  C         16.4810   -8.2250   30.8150 C.ar    1  LIG1        0.0200
     22  C         16.6990   -6.9410   30.3160 C.ar    1  LIG1        0.0330
     23  C         16.3940   -5.8270   31.0990 C.ar    1  LIG1        0.0750
     24  C         15.8710   -5.9980   32.3810 C.ar    1  LIG1        0.0330
     25  C         15.6540   -7.2830   32.8800 C.ar    1  LIG1        0.0200
     26  N         16.6120   -4.5390   30.5990 N.pl3   1  LIG1       -0.0660
     27  C         15.6860   -3.9820   29.8570 C.cat   1  LIG1        0.6920
     28  N         14.4730   -4.5240   29.4900 N.pl3   1  LIG1       -0.2330
     29  N         15.8610   -2.7170   29.3460 N.pl3   1  LIG1       -0.2330
     30  H         14.2260   -5.4270   29.7910 H       1  LIG1        0.1740
     31  H         13.8540   -4.0060   28.9240 H       1  LIG1        0.1740
     32  H         16.6880   -2.2200   29.5370 H       1  LIG1        0.1740
     33  H         15.1580   -2.3100   28.7910 H       1  LIG1        0.1740
@<TRIPOS>BOND
     1    33    29    1
     2    31    28    1
     3    29    32    1
     4    29    27    1
     5    28    30    1
     6    28    27    1
     7    27    26    2
     8    22    21   ar
     9    22    23   ar
    10    26    23    1
    11    21    20   ar
    12    23    24   ar
    13    20    18    1
    14    20    25   ar
    15    19    18    2
    16    24    25   ar
    17    18     1    1
    18     4     3   ar
    19     4     5   ar
    20     3     2   ar
    21     8     5    1
    22     8     9    1
    23     5     6   ar
    24     2     1    1
    25     2     7   ar
    26     6     7   ar
    27    14    13    2
    28    11     9    1
    29    11    12    1
    30     9    10    2
    31    13    12    1
    32    13    15   am
    33    17    15    1
    34    15    16    1
@<TRIPOS>MOLECULE
./../dock_file/temp/9f6a3161eb4a362e535671bfaeb94ee7/Camostat_Ligand_CID_2536:hmTMPRSS9:20230418095913/Camostat_Ligand_CID_2536:hmTMPRSS9_out_2.pdbqt
 33 34 0 0 0
SMALL
GASTEIGER

@<TRIPOS>ATOM
      1  O         14.4610  -10.9440   33.2930 O.3     1  LIG1       -0.2750
      2  C         14.2550   -9.6320   32.9920 C.ar    1  LIG1        0.0790
      3  C         13.0100   -9.0490   33.2280 C.ar    1  LIG1        0.0380
      4  C         12.8000   -7.7060   32.9190 C.ar    1  LIG1        0.0100
      5  C         13.8360   -6.9440   32.3760 C.ar    1  LIG1       -0.0490
      6  C         15.0810   -7.5280   32.1410 C.ar    1  LIG1        0.0100
      7  C         15.2910   -8.8720   32.4490 C.ar    1  LIG1        0.0380
      8  C         13.6090   -5.4920   32.0430 C.3     1  LIG1        0.1490
      9  C         14.7400   -4.8870   31.2450 C.2     1  LIG1        0.2630
     10  O         15.7340   -4.3530   31.7170 O.2     1  LIG1       -0.2650
     11  O         14.4820   -5.0300   29.9020 O.3     1  LIG1       -0.3120
     12  C         15.4370   -4.4790   29.0210 C.3     1  LIG1        0.2810
     13  C         16.0520   -5.5800   28.1820 C.2     1  LIG1        0.2430
     14  O         16.4380   -6.6090   28.7440 O.2     1  LIG1       -0.2710
     15  N         16.1380   -5.3670   26.8060 N.am    1  LIG1       -0.3590
     16  C         15.6800   -4.1710   26.1030 C.3     1  LIG1        0.1520
     17  C         16.7150   -6.4020   25.9560 C.3     1  LIG1        0.1520
     18  C         14.0890  -11.3010   34.5910 C.2     1  LIG1        0.2980
     19  O         14.6910  -11.0050   35.6120 O.2     1  LIG1       -0.2590
     20  C         12.8500  -12.1190   34.5870 C.ar    1  LIG1        0.0400
     21  C         12.2610  -12.4880   33.3780 C.ar    1  LIG1        0.0200
     22  C         11.0980  -13.2570   33.3750 C.ar    1  LIG1        0.0330
     23  C         10.5220  -13.6570   34.5800 C.ar    1  LIG1        0.0750
     24  C         11.1110  -13.2880   35.7910 C.ar    1  LIG1        0.0330
     25  C         12.2740  -12.5190   35.7940 C.ar    1  LIG1        0.0200
     26  N          9.3550  -14.4280   34.5770 N.pl3   1  LIG1       -0.0660
     27  C          9.4590  -15.7350   34.6040 C.cat   1  LIG1        0.6920
     28  N         10.6190  -16.4800   34.6370 N.pl3   1  LIG1       -0.2330
     29  N          8.3370  -16.5290   34.6020 N.pl3   1  LIG1       -0.2330
     30  H         11.4930  -16.0290   34.6420 H       1  LIG1        0.1740
     31  H         10.5710  -17.4630   34.6550 H       1  LIG1        0.1740
     32  H          7.4430  -16.1180   34.5800 H       1  LIG1        0.1740
     33  H          8.4280  -17.5100   34.6230 H       1  LIG1        0.1740
@<TRIPOS>BOND
     1    17    15    1
     2    16    15    1
     3    15    13   am
     4    13    14    2
     5    13    12    1
     6    12    11    1
     7    11     9    1
     8     9    10    2
     9     9     8    1
    10     8     5    1
    11     6     5   ar
    12     6     7   ar
    13     5     4   ar
    14     7     2   ar
    15     4     3   ar
    16     2     3   ar
    17     2     1    1
    18     1    18    1
    19    22    21   ar
    20    22    23   ar
    21    21    20   ar
    22    26    23    1
    23    26    27    2
    24    23    24   ar
    25    32    29    1
    26    20    18    1
    27    20    25   ar
    28    18    19    2
    29    29    27    1
    30    29    33    1
    31    27    28    1
    32    28    30    1
    33    28    31    1
    34    24    25   ar
@<TRIPOS>MOLECULE
./../dock_file/temp/9f6a3161eb4a362e535671bfaeb94ee7/Camostat_Ligand_CID_2536:hmTMPRSS9:20230418095913/Camostat_Ligand_CID_2536:hmTMPRSS9_out_2.pdbqt
 33 34 0 0 0
SMALL
GASTEIGER

@<TRIPOS>ATOM
      1  O         12.3960  -14.3250   33.5260 O.3     1  LIG1       -0.2750
      2  C         12.3980  -12.9680   33.4220 C.ar    1  LIG1        0.0790
      3  C         11.2090  -12.2860   33.1610 C.ar    1  LIG1        0.0380
      4  C         11.2120  -10.8960   33.0540 C.ar    1  LIG1        0.0100
      5  C         12.4030  -10.1860   33.2100 C.ar    1  LIG1       -0.0490
      6  C         13.5920  -10.8680   33.4710 C.ar    1  LIG1        0.0100
      7  C         13.5890  -12.2590   33.5770 C.ar    1  LIG1        0.0380
      8  C         12.4060   -8.6840   33.0950 C.3     1  LIG1        0.1490
      9  C         12.1530   -7.9910   34.4140 C.2     1  LIG1        0.2630
     10  O         12.9100   -7.9970   35.3740 O.2     1  LIG1       -0.2650
     11  O         10.9380   -7.3500   34.3700 O.3     1  LIG1       -0.3120
     12  C         10.8600   -6.2170   33.5310 C.3     1  LIG1        0.2810
     13  C         11.1930   -4.9710   34.3250 C.2     1  LIG1        0.2430
     14  O         10.3870   -4.5740   35.1710 O.2     1  LIG1       -0.2710
     15  N         12.4100   -4.3440   34.0570 N.am    1  LIG1       -0.3590
     16  C         13.3960   -4.7930   33.0760 C.3     1  LIG1        0.1520
     17  C         12.7780   -3.1470   34.8020 C.3     1  LIG1        0.1520
     18  C         12.6530  -14.8030   34.8130 C.2     1  LIG1        0.2980
     19  O         13.6580  -15.4020   35.1630 O.2     1  LIG1       -0.2590
     20  C         11.5240  -14.5050   35.7300 C.ar    1  LIG1        0.0400
     21  C         11.6990  -13.6090   36.7840 C.ar    1  LIG1        0.0200
     22  C         10.6380  -13.3290   37.6450 C.ar    1  LIG1        0.0330
     23  C          9.4020  -13.9440   37.4530 C.ar    1  LIG1        0.0750
     24  C          9.2260  -14.8400   36.3980 C.ar    1  LIG1        0.0330
     25  C         10.2870  -15.1210   35.5370 C.ar    1  LIG1        0.0200
     26  N          8.3380  -13.6630   38.3160 N.pl3   1  LIG1       -0.0660
     27  C          8.2220  -14.3540   39.4250 C.cat   1  LIG1        0.6920
     28  N          9.0470  -15.3640   39.8690 N.pl3   1  LIG1       -0.2330
     29  N          7.1910  -14.1080   40.3010 N.pl3   1  LIG1       -0.2330
     30  H          9.8240  -15.6370   39.3310 H       1  LIG1        0.1740
     31  H          8.8570  -15.8140   40.7250 H       1  LIG1        0.1740
     32  H          6.5300  -13.4070   40.0990 H       1  LIG1        0.1740
     33  H          7.1140  -14.6330   41.1300 H       1  LIG1        0.1740
@<TRIPOS>BOND
     1     4     3   ar
     2     4     5   ar
     3    16    15    1
     4     8     5    1
     5     8     9    1
     6     3     2   ar
     7     5     6   ar
     8     2     1    1
     9     2     7   ar
    10     6     7   ar
    11     1    18    1
    12    12    13    1
    13    12    11    1
    14    15    13   am
    15    15    17    1
    16    13    14    2
    17    11     9    1
    18     9    10    2
    19    18    19    2
    20    18    20    1
    21    25    20   ar
    22    25    24   ar
    23    20    21   ar
    24    24    23   ar
    25    21    22   ar
    26    23    22   ar
    27    23    26    1
    28    26    27    2
    29    30    28    1
    30    27    28    1
    31    27    29    1
    32    28    31    1
    33    32    29    1
    34    29    33    1
@<TRIPOS>MOLECULE
./../dock_file/temp/9f6a3161eb4a362e535671bfaeb94ee7/Camostat_Ligand_CID_2536:hmTMPRSS9:20230418095913/Camostat_Ligand_CID_2536:hmTMPRSS9_out_2.pdbqt
 33 34 0 0 0
SMALL
GASTEIGER

@<TRIPOS>ATOM
      1  O         12.0190   -8.2530   32.6290 O.3     1  LIG1       -0.2750
      2  C         12.2800   -9.5550   32.9260 C.ar    1  LIG1        0.0790
      3  C         11.2460  -10.4910   32.9340 C.ar    1  LIG1        0.0380
      4  C         11.5140  -11.8240   33.2380 C.ar    1  LIG1        0.0100
      5  C         12.8170  -12.2240   33.5350 C.ar    1  LIG1       -0.0490
      6  C         13.8520  -11.2890   33.5270 C.ar    1  LIG1        0.0100
      7  C         13.5830   -9.9540   33.2230 C.ar    1  LIG1        0.0380
      8  C         13.1070  -13.6660   33.8640 C.3     1  LIG1        0.1490
      9  C         12.6110  -14.0690   35.2330 C.2     1  LIG1        0.2630
     10  O         13.0600  -13.6650   36.2960 O.2     1  LIG1       -0.2650
     11  O         11.5730  -14.9610   35.1010 O.3     1  LIG1       -0.3120
     12  C         10.3020  -14.5050   35.5140 C.3     1  LIG1        0.2810
     13  C          9.2560  -14.9340   34.5060 C.2     1  LIG1        0.2430
     14  O          9.3890  -14.5890   33.3290 O.2     1  LIG1       -0.2710
     15  N          8.1940  -15.7100   34.9730 N.am    1  LIG1       -0.3590
     16  C          8.0100  -16.1510   36.3540 C.3     1  LIG1        0.1520
     17  C          7.1670  -16.1540   34.0400 C.3     1  LIG1        0.1520
     18  C         12.1060   -7.3860   33.7210 C.2     1  LIG1        0.2980
     19  O         11.5270   -7.5230   34.7880 O.2     1  LIG1       -0.2590
     20  C         12.9960   -6.2350   33.4210 C.ar    1  LIG1        0.0400
     21  C         13.1200   -5.7720   32.1120 C.ar    1  LIG1        0.0200
     22  C         13.9550   -4.6910   31.8310 C.ar    1  LIG1        0.0330
     23  C         14.6670   -4.0730   32.8590 C.ar    1  LIG1        0.0750
     24  C         14.5440   -4.5370   34.1690 C.ar    1  LIG1        0.0330
     25  C         13.7080   -5.6180   34.4500 C.ar    1  LIG1        0.0200
     26  N         15.5050   -2.9890   32.5770 N.pl3   1  LIG1       -0.0660
     27  C         16.7450   -3.2230   32.2170 C.cat   1  LIG1        0.6920
     28  N         17.3550   -4.4500   32.0750 N.pl3   1  LIG1       -0.2330
     29  N         17.6000   -2.1850   31.9310 N.pl3   1  LIG1       -0.2330
     30  H         16.8490   -5.2750   32.2520 H       1  LIG1        0.1740
     31  H         18.2990   -4.5010   31.7980 H       1  LIG1        0.1740
     32  H         17.2850   -1.2550   31.9950 H       1  LIG1        0.1740
     33  H         18.5290   -2.3740   31.6620 H       1  LIG1        0.1740
@<TRIPOS>BOND
     1    33    29    1
     2    31    28    1
     3    22    21   ar
     4    22    23   ar
     5    29    32    1
     6    29    27    1
     7    28    27    1
     8    28    30    1
     9    21    20   ar
    10    27    26    2
    11    26    23    1
    12     1     2    1
    13     1    18    1
    14    23    24   ar
    15     2     3   ar
    16     2     7   ar
    17     3     4   ar
    18     7     6   ar
    19     4     5   ar
    20    14    13    2
    21    20    18    1
    22    20    25   ar
    23     6     5   ar
    24     5     8    1
    25    18    19    2
    26     8     9    1
    27    17    15    1
    28    24    25   ar
    29    13    15   am
    30    13    12    1
    31    15    16    1
    32    11     9    1
    33    11    12    1
    34     9    10    2
@<TRIPOS>MOLECULE
./../dock_file/temp/9f6a3161eb4a362e535671bfaeb94ee7/Camostat_Ligand_CID_2536:hmTMPRSS9:20230418095913/Camostat_Ligand_CID_2536:hmTMPRSS9_out_2.pdbqt
 33 34 0 0 0
SMALL
GASTEIGER

@<TRIPOS>ATOM
      1  O         14.4060   -9.7440   34.2170 O.3     1  LIG1       -0.2750
      2  C         15.1680   -8.8240   33.5660 C.ar    1  LIG1        0.0790
      3  C         16.1020   -8.0650   34.2720 C.ar    1  LIG1        0.0380
      4  C         16.8820   -7.1220   33.6050 C.ar    1  LIG1        0.0100
      5  C         16.7310   -6.9380   32.2300 C.ar    1  LIG1       -0.0490
      6  C         15.7960   -7.6960   31.5240 C.ar    1  LIG1        0.0100
      7  C         15.0150   -8.6400   32.1920 C.ar    1  LIG1        0.0380
      8  C         17.5740   -5.9190   31.5090 C.3     1  LIG1        0.1490
      9  C         16.7900   -4.6980   31.0860 C.2     1  LIG1        0.2630
     10  O         16.4030   -4.4630   29.9500 O.2     1  LIG1       -0.2650
     11  O         16.5770   -3.8900   32.1770 O.3     1  LIG1       -0.3120
     12  C         15.2600   -3.4120   32.3520 C.3     1  LIG1        0.2810
     13  C         14.5190   -4.3070   33.3240 C.2     1  LIG1        0.2430
     14  O         14.8320   -4.2750   34.5170 O.2     1  LIG1       -0.2710
     15  N         13.5070   -5.1170   32.8080 N.am    1  LIG1       -0.3590
     16  C         13.0970   -5.1710   31.4070 C.3     1  LIG1        0.1520
     17  C         12.7600   -5.9890   33.7060 C.3     1  LIG1        0.1520
     18  C         14.7100  -11.0700   33.9010 C.2     1  LIG1        0.2980
     19  O         15.8340  -11.5370   33.7940 O.2     1  LIG1       -0.2590
     20  C         13.4760  -11.8670   33.6860 C.ar    1  LIG1        0.0400
     21  C         13.5250  -13.2590   33.7440 C.ar    1  LIG1        0.0200
     22  C         12.3650  -14.0070   33.5430 C.ar    1  LIG1        0.0330
     23  C         11.1560  -13.3630   33.2840 C.ar    1  LIG1        0.0750
     24  C         11.1050  -11.9700   33.2260 C.ar    1  LIG1        0.0330
     25  C         12.2650  -11.2220   33.4270 C.ar    1  LIG1        0.0200
     26  N          9.9920  -14.1140   33.0830 N.pl3   1  LIG1       -0.0660
     27  C          9.2990  -14.5000   34.1270 C.cat   1  LIG1        0.6920
     28  N          9.5790  -14.2530   35.4530 N.pl3   1  LIG1       -0.2330
     29  N          8.1500  -15.2390   33.9720 N.pl3   1  LIG1       -0.2330
     30  H         10.3780  -13.7340   35.6990 H       1  LIG1        0.1740
     31  H          8.9810  -14.5990   36.1550 H       1  LIG1        0.1740
     32  H          7.8390  -15.4830   33.0710 H       1  LIG1        0.1740
     33  H          7.6370  -15.5230   34.7630 H       1  LIG1        0.1740
@<TRIPOS>BOND
     1    10     9    2
     2     9     8    1
     3     9    11    1
     4    16    15    1
     5     8     5    1
     6     6     7   ar
     7     6     5   ar
     8    11    12    1
     9     7     2   ar
    10     5     4   ar
    11    12    13    1
    12    15    13   am
    13    15    17    1
    14    32    29    1
    15    26    23    1
    16    26    27    2
    17    24    23   ar
    18    24    25   ar
    19    23    22   ar
    20    13    14    2
    21    25    20   ar
    22    22    21   ar
    23     2     1    1
    24     2     3   ar
    25     4     3   ar
    26    20    21   ar
    27    20    18    1
    28    19    18    2
    29    18     1    1
    30    29    27    1
    31    29    33    1
    32    27    28    1
    33    28    30    1
    34    28    31    1
