@<TRIPOS>MOLECULE
./../dock_file/temp/cc6d6ec66a5504467592c92b48fea120/Camostat_Ligand_CID_2536:hmTMPRSS3:20230411234659/Camostat_Ligand_CID_2536:hmTMPRSS3_out_4.pdbqt
 33 34 0 0 0
SMALL
GASTEIGER

@<TRIPOS>ATOM
      1  O         11.5680   -9.2410   32.9640 O.3     1  LIG1       -0.2750
      2  C         12.4170   -8.9990   31.9280 C.ar    1  LIG1        0.0790
      3  C         12.0000   -8.2180   30.8500 C.ar    1  LIG1        0.0380
      4  C         12.8710   -7.9710   29.7900 C.ar    1  LIG1        0.0100
      5  C         14.1610   -8.5040   29.8070 C.ar    1  LIG1       -0.0490
      6  C         14.5780   -9.2850   30.8850 C.ar    1  LIG1        0.0100
      7  C         13.7060   -9.5320   31.9460 C.ar    1  LIG1        0.0380
      8  C         15.1020   -8.2370   28.6620 C.3     1  LIG1        0.1490
      9  C         15.3440   -6.7640   28.4280 C.2     1  LIG1        0.2630
     10  O         15.6700   -5.9550   29.2850 O.2     1  LIG1       -0.2650
     11  O         15.1400   -6.4700   27.1010 O.3     1  LIG1       -0.3120
     12  C         16.2290   -6.7100   26.2350 C.3     1  LIG1        0.2810
     13  C         15.7310   -6.8230   24.8090 C.2     1  LIG1        0.2430
     14  O         14.7450   -6.1620   24.4710 O.2     1  LIG1       -0.2710
     15  N         16.4290   -7.6720   23.9500 N.am    1  LIG1       -0.3590
     16  C         17.6070   -8.4590   24.3090 C.3     1  LIG1        0.1520
     17  C         15.9920   -7.8080   22.5660 C.3     1  LIG1        0.1520
     18  C         11.0830   -8.0900   33.5900 C.2     1  LIG1        0.2980
     19  O          9.9790   -7.5960   33.4180 O.2     1  LIG1       -0.2590
     20  C         12.1000   -7.5090   34.5040 C.ar    1  LIG1        0.0400
     21  C         12.3160   -6.1320   34.5220 C.ar    1  LIG1        0.0200
     22  C         13.2700   -5.5870   35.3810 C.ar    1  LIG1        0.0330
     23  C         14.0100   -6.4190   36.2200 C.ar    1  LIG1        0.0750
     24  C         13.7950   -7.7970   36.2020 C.ar    1  LIG1        0.0330
     25  C         12.8400   -8.3430   35.3430 C.ar    1  LIG1        0.0200
     26  N         14.9680   -5.8720   37.0810 N.pl3   1  LIG1       -0.0660
     27  C         16.1910   -5.7000   36.6410 C.cat   1  LIG1        0.6920
     28  N         16.6770   -6.0010   35.3870 N.pl3   1  LIG1       -0.2330
     29  N         17.1620   -5.1660   37.4550 N.pl3   1  LIG1       -0.2330
     30  H         16.0810   -6.3910   34.7090 H       1  LIG1        0.1740
     31  H         17.6220   -5.8270   35.1710 H       1  LIG1        0.1740
     32  H         16.9420   -4.9070   38.3790 H       1  LIG1        0.1740
     33  H         18.0770   -5.0410   37.1130 H       1  LIG1        0.1740
@<TRIPOS>BOND
     1    17    15    1
     2    15    16    1
     3    15    13   am
     4    14    13    2
     5    13    12    1
     6    12    11    1
     7    11     9    1
     8     9     8    1
     9     9    10    2
    10     8     5    1
    11     4     5   ar
    12     4     3   ar
    13     5     6   ar
    14     3     2   ar
    15     6     7   ar
    16     2     7   ar
    17     2     1    1
    18     1    18    1
    19    19    18    2
    20    18    20    1
    21    20    21   ar
    22    20    25   ar
    23    21    22   ar
    24    30    28    1
    25    31    28    1
    26    25    24   ar
    27    22    23   ar
    28    28    27    1
    29    24    23   ar
    30    23    26    1
    31    27    26    2
    32    27    29    1
    33    33    29    1
    34    29    32    1
@<TRIPOS>MOLECULE
./../dock_file/temp/cc6d6ec66a5504467592c92b48fea120/Camostat_Ligand_CID_2536:hmTMPRSS3:20230411234659/Camostat_Ligand_CID_2536:hmTMPRSS3_out_4.pdbqt
 33 34 0 0 0
SMALL
GASTEIGER

@<TRIPOS>ATOM
      1  O         12.1830   -9.2050   33.2770 O.3     1  LIG1       -0.2750
      2  C         12.8980   -8.9690   32.1430 C.ar    1  LIG1        0.0790
      3  C         14.1170   -9.6160   31.9390 C.ar    1  LIG1        0.0380
      4  C         14.8490   -9.3740   30.7780 C.ar    1  LIG1        0.0100
      5  C         14.3620   -8.4860   29.8180 C.ar    1  LIG1       -0.0490
      6  C         13.1420   -7.8400   30.0220 C.ar    1  LIG1        0.0100
      7  C         12.4100   -8.0810   31.1840 C.ar    1  LIG1        0.0380
      8  C         15.1520   -8.2250   28.5620 C.3     1  LIG1        0.1490
      9  C         15.6660   -6.8070   28.4740 C.2     1  LIG1        0.2630
     10  O         16.1150   -6.1560   29.4070 O.2     1  LIG1       -0.2650
     11  O         15.5530   -6.3580   27.1790 O.3     1  LIG1       -0.3120
     12  C         16.4150   -6.9550   26.2340 C.3     1  LIG1        0.2810
     13  C         15.8030   -6.8540   24.8520 C.2     1  LIG1        0.2430
     14  O         14.8420   -6.0990   24.6820 O.2     1  LIG1       -0.2710
     15  N         16.3760   -7.6220   23.8380 N.am    1  LIG1       -0.3590
     16  C         17.5220   -8.5140   23.9960 C.3     1  LIG1        0.1520
     17  C         15.8280   -7.5520   22.4900 C.3     1  LIG1        0.1520
     18  C         12.9310   -9.1290   34.4550 C.2     1  LIG1        0.2980
     19  O         13.2060  -10.0680   35.1860 O.2     1  LIG1       -0.2590
     20  C         13.3530   -7.7320   34.7320 C.ar    1  LIG1        0.0400
     21  C         12.4040   -6.7120   34.7710 C.ar    1  LIG1        0.0200
     22  C         12.8000   -5.4000   35.0320 C.ar    1  LIG1        0.0330
     23  C         14.1460   -5.1090   35.2530 C.ar    1  LIG1        0.0750
     24  C         15.0960   -6.1290   35.2140 C.ar    1  LIG1        0.0330
     25  C         14.7000   -7.4410   34.9530 C.ar    1  LIG1        0.0200
     26  N         14.5430   -3.7930   35.5150 N.pl3   1  LIG1       -0.0660
     27  C         14.9780   -3.0530   34.5230 C.cat   1  LIG1        0.6920
     28  N         15.1010   -3.4190   33.2000 N.pl3   1  LIG1       -0.2330
     29  N         15.3780   -1.7550   34.7380 N.pl3   1  LIG1       -0.2330
     30  H         14.8470   -4.3260   32.9150 H       1  LIG1        0.1740
     31  H         15.4430   -2.7720   32.5410 H       1  LIG1        0.1740
     32  H         15.3390   -1.3720   35.6440 H       1  LIG1        0.1740
     33  H         15.7030   -1.2100   33.9860 H       1  LIG1        0.1740
@<TRIPOS>BOND
     1    17    15    1
     2    15    16    1
     3    15    13   am
     4    14    13    2
     5    13    12    1
     6    12    11    1
     7    11     9    1
     8     9     8    1
     9     9    10    2
    10     8     5    1
    11     5     6   ar
    12     5     4   ar
    13     6     7   ar
    14     4     3   ar
    15     7     2   ar
    16     3     2   ar
    17     2     1    1
    18    31    28    1
    19    30    28    1
    20    28    27    1
    21     1    18    1
    22    33    29    1
    23    18    20    1
    24    18    19    2
    25    27    29    1
    26    27    26    2
    27    20    21   ar
    28    20    25   ar
    29    29    32    1
    30    21    22   ar
    31    25    24   ar
    32    22    23   ar
    33    24    23   ar
    34    23    26    1
@<TRIPOS>MOLECULE
./../dock_file/temp/cc6d6ec66a5504467592c92b48fea120/Camostat_Ligand_CID_2536:hmTMPRSS3:20230411234659/Camostat_Ligand_CID_2536:hmTMPRSS3_out_4.pdbqt
 33 34 0 0 0
SMALL
GASTEIGER

@<TRIPOS>ATOM
      1  O         16.5910  -11.4340   31.0430 O.3     1  LIG1       -0.2750
      2  C         16.6620  -10.3810   30.1840 C.ar    1  LIG1        0.0790
      3  C         17.5890   -9.3620   30.4030 C.ar    1  LIG1        0.0380
      4  C         17.6610   -8.2840   29.5220 C.ar    1  LIG1        0.0100
      5  C         16.8070   -8.2240   28.4200 C.ar    1  LIG1       -0.0490
      6  C         15.8800   -9.2430   28.2020 C.ar    1  LIG1        0.0100
      7  C         15.8070  -10.3220   29.0830 C.ar    1  LIG1        0.0380
      8  C         16.8850   -7.0590   27.4680 C.3     1  LIG1        0.1490
      9  C         15.5290   -6.6070   26.9780 C.2     1  LIG1        0.2630
     10  O         14.6170   -6.2040   27.6860 O.2     1  LIG1       -0.2650
     11  O         15.4770   -6.7170   25.6080 O.3     1  LIG1       -0.3120
     12  C         16.7130   -6.6580   24.9290 C.3     1  LIG1        0.2810
     13  C         16.6360   -7.4780   23.6580 C.2     1  LIG1        0.2430
     14  O         15.9710   -7.0450   22.7130 O.2     1  LIG1       -0.2710
     15  N         17.3370   -8.6840   23.6280 N.am    1  LIG1       -0.3590
     16  C         18.1450   -9.2210   24.7200 C.3     1  LIG1        0.1520
     17  C         17.3000   -9.5040   22.4240 C.3     1  LIG1        0.1520
     18  C         16.4380  -11.0720   32.3840 C.2     1  LIG1        0.2980
     19  O         17.2760  -11.2150   33.2610 O.2     1  LIG1       -0.2590
     20  C         15.0930  -10.4910   32.6320 C.ar    1  LIG1        0.0400
     21  C         14.9740   -9.2490   33.2540 C.ar    1  LIG1        0.0200
     22  C         13.7120   -8.7030   33.4860 C.ar    1  LIG1        0.0330
     23  C         12.5680   -9.4000   33.0960 C.ar    1  LIG1        0.0750
     24  C         12.6870  -10.6430   32.4740 C.ar    1  LIG1        0.0330
     25  C         13.9490  -11.1890   32.2420 C.ar    1  LIG1        0.0200
     26  N         11.3020   -8.8530   33.3290 N.pl3   1  LIG1       -0.0660
     27  C         10.7390   -8.1340   32.3880 C.cat   1  LIG1        0.6920
     28  N         11.2560   -7.8340   31.1460 N.pl3   1  LIG1       -0.2330
     29  N          9.4960   -7.5780   32.5770 N.pl3   1  LIG1       -0.2330
     30  H         12.1420   -8.1720   30.8870 H       1  LIG1        0.1740
     31  H         10.7370   -7.2790   30.5190 H       1  LIG1        0.1740
     32  H          9.0180   -7.7190   33.4250 H       1  LIG1        0.1740
     33  H          9.0840   -7.0400   31.8620 H       1  LIG1        0.1740
@<TRIPOS>BOND
     1    17    15    1
     2    14    13    2
     3    15    13   am
     4    15    16    1
     5    13    12    1
     6    12    11    1
     7    11     9    1
     8     9     8    1
     9     9    10    2
    10     8     5    1
    11     6     5   ar
    12     6     7   ar
    13     5     4   ar
    14     7     2   ar
    15     4     3   ar
    16     2     3   ar
    17     2     1    1
    18    31    28    1
    19    30    28    1
    20     1    18    1
    21    28    27    1
    22    33    29    1
    23    25    24   ar
    24    25    20   ar
    25    18    20    1
    26    18    19    2
    27    27    29    1
    28    27    26    2
    29    24    23   ar
    30    29    32    1
    31    20    21   ar
    32    23    26    1
    33    23    22   ar
    34    21    22   ar
@<TRIPOS>MOLECULE
./../dock_file/temp/cc6d6ec66a5504467592c92b48fea120/Camostat_Ligand_CID_2536:hmTMPRSS3:20230411234659/Camostat_Ligand_CID_2536:hmTMPRSS3_out_4.pdbqt
 33 34 0 0 0
SMALL
GASTEIGER

@<TRIPOS>ATOM
      1  O         18.0840   -4.8390   29.1120 O.3     1  LIG1       -0.2750
      2  C         17.0660   -5.7070   29.3640 C.ar    1  LIG1        0.0790
      3  C         16.1970   -6.0800   28.3380 C.ar    1  LIG1        0.0380
      4  C         15.1540   -6.9680   28.5970 C.ar    1  LIG1        0.0100
      5  C         14.9800   -7.4860   29.8800 C.ar    1  LIG1       -0.0490
      6  C         15.8500   -7.1130   30.9060 C.ar    1  LIG1        0.0100
      7  C         16.8930   -6.2240   30.6480 C.ar    1  LIG1        0.0380
      8  C         13.8540   -8.4470   30.1600 C.3     1  LIG1        0.1490
      9  C         12.4910   -7.8020   30.0570 C.2     1  LIG1        0.2630
     10  O         11.8690   -7.6200   29.0200 O.2     1  LIG1       -0.2650
     11  O         12.0540   -7.4520   31.3130 O.3     1  LIG1       -0.3120
     12  C         11.8710   -8.5110   32.2280 C.3     1  LIG1        0.2810
     13  C         11.5960   -7.9500   33.6080 C.2     1  LIG1        0.2430
     14  O         10.4600   -7.5450   33.8690 O.2     1  LIG1       -0.2710
     15  N         12.6550   -7.9320   34.5170 N.am    1  LIG1       -0.3590
     16  C         14.0080   -8.4160   34.2510 C.3     1  LIG1        0.1520
     17  C         12.4370   -7.4100   35.8600 C.3     1  LIG1        0.1520
     18  C         17.6740   -3.5260   28.8710 C.2     1  LIG1        0.2980
     19  O         17.6470   -2.9760   27.7810 O.2     1  LIG1       -0.2590
     20  C         17.2770   -2.8490   30.1320 C.ar    1  LIG1        0.0400
     21  C         16.0500   -2.1910   30.2150 C.ar    1  LIG1        0.0200
     22  C         15.6780   -1.5560   31.3990 C.ar    1  LIG1        0.0330
     23  C         16.5320   -1.5780   32.5010 C.ar    1  LIG1        0.0750
     24  C         17.7600   -2.2360   32.4200 C.ar    1  LIG1        0.0330
     25  C         18.1320   -2.8710   31.2350 C.ar    1  LIG1        0.0200
     26  N         16.1580   -0.9400   33.6890 N.pl3   1  LIG1       -0.0660
     27  C         15.5060   -1.6250   34.5980 C.cat   1  LIG1        0.6920
     28  N         15.1240   -2.9480   34.5320 N.pl3   1  LIG1       -0.2330
     29  N         15.1210   -1.0360   35.7790 N.pl3   1  LIG1       -0.2330
     30  H         15.3400   -3.4830   33.7350 H       1  LIG1        0.1740
     31  H         14.6340   -3.3560   35.2820 H       1  LIG1        0.1740
     32  H         15.3340   -0.0910   35.9500 H       1  LIG1        0.1740
     33  H         14.6320   -1.5610   36.4540 H       1  LIG1        0.1740
@<TRIPOS>BOND
     1    19    18    2
     2     3     4   ar
     3     3     2   ar
     4     4     5   ar
     5    18     1    1
     6    18    20    1
     7    10     9    2
     8     1     2    1
     9     2     7   ar
    10     5     8    1
    11     5     6   ar
    12     9     8    1
    13     9    11    1
    14    20    21   ar
    15    20    25   ar
    16    21    22   ar
    17     7     6   ar
    18    25    24   ar
    19    11    12    1
    20    22    23   ar
    21    12    13    1
    22    24    23   ar
    23    23    26    1
    24    13    14    2
    25    13    15   am
    26    26    27    2
    27    30    28    1
    28    16    15    1
    29    15    17    1
    30    28    27    1
    31    28    31    1
    32    27    29    1
    33    29    32    1
    34    29    33    1
@<TRIPOS>MOLECULE
./../dock_file/temp/cc6d6ec66a5504467592c92b48fea120/Camostat_Ligand_CID_2536:hmTMPRSS3:20230411234659/Camostat_Ligand_CID_2536:hmTMPRSS3_out_4.pdbqt
 33 34 0 0 0
SMALL
GASTEIGER

@<TRIPOS>ATOM
      1  O         12.5980   -8.4600   34.2220 O.3     1  LIG1       -0.2750
      2  C         13.1280   -8.4630   32.9680 C.ar    1  LIG1        0.0790
      3  C         14.4760   -8.7670   32.7800 C.ar    1  LIG1        0.0380
      4  C         15.0180   -8.7710   31.4960 C.ar    1  LIG1        0.0100
      5  C         14.2110   -8.4710   30.3970 C.ar    1  LIG1       -0.0490
      6  C         12.8630   -8.1670   30.5850 C.ar    1  LIG1        0.0100
      7  C         12.3210   -8.1630   31.8710 C.ar    1  LIG1        0.0380
      8  C         14.7960   -8.4740   29.0090 C.3     1  LIG1        0.1490
      9  C         15.1120   -7.0880   28.4990 C.2     1  LIG1        0.2630
     10  O         14.3460   -6.3720   27.8700 O.2     1  LIG1       -0.2650
     11  O         16.3970   -6.7510   28.8530 O.3     1  LIG1       -0.3120
     12  C         16.5450   -5.5790   29.6270 C.3     1  LIG1        0.2810
     13  C         17.0850   -4.4610   28.7600 C.2     1  LIG1        0.2430
     14  O         17.4690   -4.7280   27.6180 O.2     1  LIG1       -0.2710
     15  N         17.1090   -3.1780   29.3080 N.am    1  LIG1       -0.3590
     16  C         16.6500   -2.8200   30.6480 C.3     1  LIG1        0.1520
     17  C         17.6120   -2.0680   28.5090 C.3     1  LIG1        0.1520
     18  C         12.0360   -7.2400   34.6050 C.2     1  LIG1        0.2980
     19  O         10.8510   -6.9490   34.5370 O.2     1  LIG1       -0.2590
     20  C         13.0750   -6.3040   35.1050 C.ar    1  LIG1        0.0400
     21  C         13.1840   -5.0260   34.5580 C.ar    1  LIG1        0.0200
     22  C         14.1600   -4.1470   35.0270 C.ar    1  LIG1        0.0330
     23  C         15.0280   -4.5470   36.0440 C.ar    1  LIG1        0.0750
     24  C         14.9190   -5.8250   36.5910 C.ar    1  LIG1        0.0330
     25  C         13.9430   -6.7040   36.1220 C.ar    1  LIG1        0.0200
     26  N         16.0070   -3.6650   36.5140 N.pl3   1  LIG1       -0.0660
     27  C         17.1560   -3.6010   35.8870 C.cat   1  LIG1        0.6920
     28  N         17.5430   -4.3200   34.7770 N.pl3   1  LIG1       -0.2330
     29  N         18.1450   -2.7470   36.3180 N.pl3   1  LIG1       -0.2330
     30  H         16.9240   -4.9680   34.3700 H       1  LIG1        0.1740
     31  H         18.4390   -4.1860   34.3910 H       1  LIG1        0.1740
     32  H         17.9930   -2.1760   37.1040 H       1  LIG1        0.1740
     33  H         19.0040   -2.7080   35.8380 H       1  LIG1        0.1740
@<TRIPOS>BOND
     1    14    13    2
     2    10     9    2
     3     9    11    1
     4     9     8    1
     5    17    15    1
     6    13    15   am
     7    13    12    1
     8    11    12    1
     9     8     5    1
    10    15    16    1
    11     5     6   ar
    12     5     4   ar
    13     6     7   ar
    14     4     3   ar
    15     7     2   ar
    16     3     2   ar
    17     2     1    1
    18     1    18    1
    19    30    28    1
    20    31    28    1
    21    19    18    2
    22    21    22   ar
    23    21    20   ar
    24    18    20    1
    25    28    27    1
    26    22    23   ar
    27    20    25   ar
    28    33    29    1
    29    27    29    1
    30    27    26    2
    31    23    26    1
    32    23    24   ar
    33    25    24   ar
    34    29    32    1
@<TRIPOS>MOLECULE
./../dock_file/temp/cc6d6ec66a5504467592c92b48fea120/Camostat_Ligand_CID_2536:hmTMPRSS3:20230411234659/Camostat_Ligand_CID_2536:hmTMPRSS3_out_4.pdbqt
 33 34 0 0 0
SMALL
GASTEIGER

@<TRIPOS>ATOM
      1  O         11.9910   -8.0620   34.7590 O.3     1  LIG1       -0.2750
      2  C         12.8380   -7.0330   35.0360 C.ar    1  LIG1        0.0790
      3  C         14.1070   -7.2930   35.5530 C.ar    1  LIG1        0.0380
      4  C         14.9740   -6.2390   35.8370 C.ar    1  LIG1        0.0100
      5  C         14.5730   -4.9230   35.6020 C.ar    1  LIG1       -0.0490
      6  C         13.3040   -4.6630   35.0850 C.ar    1  LIG1        0.0100
      7  C         12.4360   -5.7180   34.8010 C.ar    1  LIG1        0.0380
      8  C         15.5100   -3.7840   35.9080 C.3     1  LIG1        0.1490
      9  C         15.7430   -2.8770   34.7220 C.2     1  LIG1        0.2630
     10  O         15.4850   -1.6820   34.6820 O.2     1  LIG1       -0.2650
     11  O         16.2910   -3.6020   33.6910 O.3     1  LIG1       -0.3120
     12  C         15.8530   -3.2690   32.3910 C.3     1  LIG1        0.2810
     13  C         16.7190   -3.9710   31.3660 C.2     1  LIG1        0.2430
     14  O         17.2210   -5.0600   31.6580 O.2     1  LIG1       -0.2710
     15  N         16.8930   -3.3420   30.1320 N.am    1  LIG1       -0.3590
     16  C         16.3040   -2.0620   29.7430 C.3     1  LIG1        0.1520
     17  C         17.7110   -3.9830   29.1100 C.3     1  LIG1        0.1520
     18  C         11.3150   -7.9380   33.5430 C.2     1  LIG1        0.2980
     19  O         10.1400   -7.6340   33.4080 O.2     1  LIG1       -0.2590
     20  C         12.2110   -8.2450   32.3990 C.ar    1  LIG1        0.0400
     21  C         11.9670   -7.6750   31.1500 C.ar    1  LIG1        0.0200
     22  C         12.8100   -7.9630   30.0760 C.ar    1  LIG1        0.0330
     23  C         13.8950   -8.8200   30.2510 C.ar    1  LIG1        0.0750
     24  C         14.1400   -9.3900   31.5000 C.ar    1  LIG1        0.0330
     25  C         13.2980   -9.1030   32.5740 C.ar    1  LIG1        0.0200
     26  N         14.7400   -9.1090   29.1730 N.pl3   1  LIG1       -0.0660
     27  C         15.7370   -8.2970   28.9150 C.cat   1  LIG1        0.6920
     28  N         16.0760   -7.1470   29.5960 N.pl3   1  LIG1       -0.2330
     29  N         16.5900   -8.5450   27.8650 N.pl3   1  LIG1       -0.2330
     30  H         15.5420   -6.8580   30.3700 H       1  LIG1        0.1740
     31  H         16.8520   -6.6150   29.3060 H       1  LIG1        0.1740
     32  H         16.4570   -9.3380   27.2990 H       1  LIG1        0.1740
     33  H         17.3360   -7.9280   27.6820 H       1  LIG1        0.1740
@<TRIPOS>BOND
     1    32    29    1
     2    33    29    1
     3    29    27    1
     4    27    26    2
     5    27    28    1
     6    17    15    1
     7    26    23    1
     8    31    28    1
     9    28    30    1
    10    16    15    1
    11    22    23   ar
    12    22    21   ar
    13    15    13   am
    14    23    24   ar
    15    21    20   ar
    16    13    14    2
    17    13    12    1
    18    24    25   ar
    19    12    11    1
    20    20    25   ar
    21    20    18    1
    22    19    18    2
    23    18     1    1
    24    11     9    1
    25    10     9    2
    26     9     8    1
    27     1     2    1
    28     7     2   ar
    29     7     6   ar
    30     2     3   ar
    31     6     5   ar
    32     3     4   ar
    33     5     4   ar
    34     5     8    1
@<TRIPOS>MOLECULE
./../dock_file/temp/cc6d6ec66a5504467592c92b48fea120/Camostat_Ligand_CID_2536:hmTMPRSS3:20230411234659/Camostat_Ligand_CID_2536:hmTMPRSS3_out_4.pdbqt
 33 34 0 0 0
SMALL
GASTEIGER

@<TRIPOS>ATOM
      1  O         16.6710  -12.6670   31.3160 O.3     1  LIG1       -0.2750
      2  C         16.0880  -11.5490   30.8040 C.ar    1  LIG1        0.0790
      3  C         15.3270  -10.7190   31.6270 C.ar    1  LIG1        0.0380
      4  C         14.7300   -9.5740   31.1020 C.ar    1  LIG1        0.0100
      5  C         14.8950   -9.2570   29.7530 C.ar    1  LIG1       -0.0490
      6  C         15.6560  -10.0870   28.9300 C.ar    1  LIG1        0.0100
      7  C         16.2540  -11.2330   29.4560 C.ar    1  LIG1        0.0380
      8  C         14.2500   -8.0190   29.1860 C.3     1  LIG1        0.1490
      9  C         15.2550   -7.0000   28.7020 C.2     1  LIG1        0.2630
     10  O         15.9740   -6.3180   29.4200 O.2     1  LIG1       -0.2650
     11  O         15.2390   -6.9550   27.3280 O.3     1  LIG1       -0.3120
     12  C         16.4800   -6.7230   26.6970 C.3     1  LIG1        0.2810
     13  C         16.6670   -7.7080   25.5620 C.2     1  LIG1        0.2430
     14  O         17.1460   -8.8170   25.8120 O.2     1  LIG1       -0.2710
     15  N         16.2720   -7.3020   24.2870 N.am    1  LIG1       -0.3590
     16  C         15.6870   -6.0040   23.9550 C.3     1  LIG1        0.1520
     17  C         16.4240   -8.2180   23.1640 C.3     1  LIG1        0.1520
     18  C         16.1970  -13.8630   30.7720 C.2     1  LIG1        0.2980
     19  O         16.5500  -14.3520   29.7090 O.2     1  LIG1       -0.2590
     20  C         15.1730  -14.4830   31.6510 C.ar    1  LIG1        0.0400
     21  C         14.3910  -15.5350   31.1760 C.ar    1  LIG1        0.0200
     22  C         13.4290  -16.1170   32.0020 C.ar    1  LIG1        0.0330
     23  C         13.2500  -15.6470   33.3030 C.ar    1  LIG1        0.0750
     24  C         14.0320  -14.5940   33.7780 C.ar    1  LIG1        0.0330
     25  C         14.9930  -14.0120   32.9520 C.ar    1  LIG1        0.0200
     26  N         12.2850  -16.2310   34.1310 N.pl3   1  LIG1       -0.0660
     27  C         11.0290  -15.8830   33.9840 C.cat   1  LIG1        0.6920
     28  N         10.5130  -14.9790   33.0810 N.pl3   1  LIG1       -0.2330
     29  N         10.0510  -16.4340   34.7770 N.pl3   1  LIG1       -0.2330
     30  H         11.1120  -14.5140   32.4540 H       1  LIG1        0.1740
     31  H          9.5450  -14.7980   33.0640 H       1  LIG1        0.1740
     32  H         10.2890  -17.0970   35.4640 H       1  LIG1        0.1740
     33  H          9.1110  -16.1650   34.6570 H       1  LIG1        0.1740
@<TRIPOS>BOND
     1    17    15    1
     2    16    15    1
     3    15    13   am
     4    13    14    2
     5    13    12    1
     6    12    11    1
     7    11     9    1
     8     9     8    1
     9     9    10    2
    10     6     7   ar
    11     6     5   ar
    12     8     5    1
    13     7     2   ar
    14    19    18    2
    15     5     4   ar
    16    18     1    1
    17    18    20    1
    18     2     1    1
    19     2     3   ar
    20     4     3   ar
    21    21    20   ar
    22    21    22   ar
    23    20    25   ar
    24    22    23   ar
    25    30    28    1
    26    25    24   ar
    27    31    28    1
    28    28    27    1
    29    23    24   ar
    30    23    26    1
    31    27    26    2
    32    27    29    1
    33    33    29    1
    34    29    32    1
@<TRIPOS>MOLECULE
./../dock_file/temp/cc6d6ec66a5504467592c92b48fea120/Camostat_Ligand_CID_2536:hmTMPRSS3:20230411234659/Camostat_Ligand_CID_2536:hmTMPRSS3_out_4.pdbqt
 33 34 0 0 0
SMALL
GASTEIGER

@<TRIPOS>ATOM
      1  O         13.4370   -8.3150   35.4730 O.3     1  LIG1       -0.2750
      2  C         13.5930   -8.4850   34.1320 C.ar    1  LIG1        0.0790
      3  C         14.8570   -8.3570   33.5550 C.ar    1  LIG1        0.0380
      4  C         15.0170   -8.5320   32.1810 C.ar    1  LIG1        0.0100
      5  C         13.9140   -8.8350   31.3820 C.ar    1  LIG1       -0.0490
      6  C         12.6500   -8.9620   31.9590 C.ar    1  LIG1        0.0100
      7  C         12.4900   -8.7880   33.3340 C.ar    1  LIG1        0.0380
      8  C         14.0870   -9.0230   29.8980 C.3     1  LIG1        0.1490
      9  C         14.2650   -7.7200   29.1550 C.2     1  LIG1        0.2630
     10  O         13.3630   -6.9650   28.8210 O.2     1  LIG1       -0.2650
     11  O         15.6020   -7.5090   28.9130 O.3     1  LIG1       -0.3120
     12  C         15.9270   -6.3600   28.1600 C.3     1  LIG1        0.2810
     13  C         16.1700   -6.7490   26.7160 C.2     1  LIG1        0.2430
     14  O         15.2470   -6.6330   25.9060 O.2     1  LIG1       -0.2710
     15  N         17.4430   -7.2130   26.3820 N.am    1  LIG1       -0.3590
     16  C         18.5650   -7.3490   27.3090 C.3     1  LIG1        0.1520
     17  C         17.7290   -7.5910   25.0040 C.3     1  LIG1        0.1520
     18  C         12.7850   -7.1320   35.8300 C.2     1  LIG1        0.2980
     19  O         11.6010   -7.0280   36.1130 O.2     1  LIG1       -0.2590
     20  C         13.7190   -5.9780   35.8100 C.ar    1  LIG1        0.0400
     21  C         13.5830   -4.9870   34.8390 C.ar    1  LIG1        0.0200
     22  C         14.4610   -3.9030   34.8200 C.ar    1  LIG1        0.0330
     23  C         15.4760   -3.8110   35.7720 C.ar    1  LIG1        0.0750
     24  C         15.6130   -4.8030   36.7440 C.ar    1  LIG1        0.0330
     25  C         14.7350   -5.8860   36.7620 C.ar    1  LIG1        0.0200
     26  N         16.3560   -2.7240   35.7530 N.pl3   1  LIG1       -0.0660
     27  C         15.8670   -1.5140   35.6200 C.cat   1  LIG1        0.6920
     28  N         14.5410   -1.1600   35.4900 N.pl3   1  LIG1       -0.2330
     29  N         16.6980   -0.4190   35.5970 N.pl3   1  LIG1       -0.2330
     30  H         13.8440   -1.8530   35.4910 H       1  LIG1        0.1740
     31  H         14.2930   -0.2110   35.3950 H       1  LIG1        0.1740
     32  H         17.6710   -0.5380   35.6820 H       1  LIG1        0.1740
     33  H         16.3180    0.4840   35.4970 H       1  LIG1        0.1740
@<TRIPOS>BOND
     1    17    15    1
     2    14    13    2
     3    15    13   am
     4    15    16    1
     5    13    12    1
     6    12    11    1
     7    10     9    2
     8    11     9    1
     9     9     8    1
    10     8     5    1
    11     5     6   ar
    12     5     4   ar
    13     6     7   ar
    14     4     3   ar
    15     7     2   ar
    16     3     2   ar
    17     2     1    1
    18    22    21   ar
    19    22    23   ar
    20    21    20   ar
    21    31    28    1
    22     1    18    1
    23    28    30    1
    24    28    27    1
    25    33    29    1
    26    29    27    1
    27    29    32    1
    28    27    26    2
    29    26    23    1
    30    23    24   ar
    31    20    18    1
    32    20    25   ar
    33    18    19    2
    34    24    25   ar
@<TRIPOS>MOLECULE
./../dock_file/temp/cc6d6ec66a5504467592c92b48fea120/Camostat_Ligand_CID_2536:hmTMPRSS3:20230411234659/Camostat_Ligand_CID_2536:hmTMPRSS3_out_4.pdbqt
 33 34 0 0 0
SMALL
GASTEIGER

@<TRIPOS>ATOM
      1  O         16.1420  -14.4200   32.5010 O.3     1  LIG1       -0.2750
      2  C         16.0320  -13.4250   31.5800 C.ar    1  LIG1        0.0790
      3  C         15.6750  -12.1370   31.9820 C.ar    1  LIG1        0.0380
      4  C         15.5630  -11.1180   31.0380 C.ar    1  LIG1        0.0100
      5  C         15.8080  -11.3840   29.6900 C.ar    1  LIG1       -0.0490
      6  C         16.1640  -12.6720   29.2880 C.ar    1  LIG1        0.0100
      7  C         16.2770  -13.6920   30.2330 C.ar    1  LIG1        0.0380
      8  C         15.6860  -10.2830   28.6690 C.3     1  LIG1        0.1490
      9  C         16.8690   -9.3430   28.6730 C.2     1  LIG1        0.2630
     10  O         18.0090   -9.6400   29.0050 O.2     1  LIG1       -0.2650
     11  O         16.4700   -8.1000   28.2430 O.3     1  LIG1       -0.3120
     12  C         17.2710   -7.4950   27.2500 C.3     1  LIG1        0.2810
     13  C         16.4260   -7.1840   26.0330 C.2     1  LIG1        0.2430
     14  O         15.3920   -6.5260   26.1810 O.2     1  LIG1       -0.2710
     15  N         16.8760   -7.6560   24.8000 N.am    1  LIG1       -0.3590
     16  C         18.1010   -8.4240   24.5830 C.3     1  LIG1        0.1520
     17  C         16.1010   -7.3740   23.5980 C.3     1  LIG1        0.1520
     18  C         15.0140  -14.5830   33.3090 C.2     1  LIG1        0.2980
     19  O         14.8800  -14.1480   34.4430 O.2     1  LIG1       -0.2590
     20  C         13.9710  -15.3820   32.6170 C.ar    1  LIG1        0.0400
     21  C         12.7070  -14.8370   32.3950 C.ar    1  LIG1        0.0200
     22  C         11.7280  -15.5880   31.7440 C.ar    1  LIG1        0.0330
     23  C         12.0120  -16.8850   31.3180 C.ar    1  LIG1        0.0750
     24  C         13.2760  -17.4310   31.5400 C.ar    1  LIG1        0.0330
     25  C         14.2560  -16.6800   32.1910 C.ar    1  LIG1        0.0200
     26  N         11.0300  -17.6380   30.6660 N.pl3   1  LIG1       -0.0660
     27  C         10.2750  -18.4440   31.3730 C.cat   1  LIG1        0.6920
     28  N         10.3260  -18.6540   32.7350 N.pl3   1  LIG1       -0.2330
     29  N          9.2980  -19.2010   30.7710 N.pl3   1  LIG1       -0.2330
     30  H         10.9840  -18.1710   33.2830 H       1  LIG1        0.1740
     31  H          9.7030  -19.2890   33.1580 H       1  LIG1        0.1740
     32  H          9.1590  -19.1420   29.7990 H       1  LIG1        0.1740
     33  H          8.7370  -19.8020   31.3130 H       1  LIG1        0.1740
@<TRIPOS>BOND
     1    17    15    1
     2    16    15    1
     3    15    13   am
     4    13    14    2
     5    13    12    1
     6    12    11    1
     7    11     9    1
     8     8     9    1
     9     8     5    1
    10     9    10    2
    11     6     5   ar
    12     6     7   ar
    13     5     4   ar
    14    32    29    1
    15     7     2   ar
    16    26    23    1
    17    26    27    2
    18    29    33    1
    19    29    27    1
    20     4     3   ar
    21    23    24   ar
    22    23    22   ar
    23    27    28    1
    24    24    25   ar
    25     2     3   ar
    26     2     1    1
    27    22    21   ar
    28    25    20   ar
    29    21    20   ar
    30     1    18    1
    31    20    18    1
    32    28    31    1
    33    28    30    1
    34    18    19    2
