@<TRIPOS>MOLECULE
./../dock_file/temp/cc6d6ec66a5504467592c92b48fea120/Camostat_Ligand_CID_2536:hmTMPRSS3:20230411234659/Camostat_Ligand_CID_2536:hmTMPRSS3_out_1.pdbqt
 33 34 0 0 0
SMALL
GASTEIGER

@<TRIPOS>ATOM
      1  O         23.7960    7.1650   26.4360 O.3     1  LIG1       -0.2750
      2  C         23.7680    8.4160   25.9020 C.ar    1  LIG1        0.0790
      3  C         22.5530    8.9860   25.5200 C.ar    1  LIG1        0.0380
      4  C         22.5260   10.2680   24.9730 C.ar    1  LIG1        0.0100
      5  C         23.7120   10.9830   24.8100 C.ar    1  LIG1       -0.0490
      6  C         24.9270   10.4140   25.1930 C.ar    1  LIG1        0.0100
      7  C         24.9550    9.1310   25.7400 C.ar    1  LIG1        0.0380
      8  C         23.6830   12.3690   24.2200 C.3     1  LIG1        0.1490
      9  C         23.0380   13.3850   25.1340 C.2     1  LIG1        0.2630
     10  O         23.4960   13.7700   26.2010 O.2     1  LIG1       -0.2650
     11  O         21.8550   13.8140   24.5810 O.3     1  LIG1       -0.3120
     12  C         21.9550   14.8190   23.5940 C.3     1  LIG1        0.2810
     13  C         21.9170   16.1830   24.2510 C.2     1  LIG1        0.2430
     14  O         20.8840   16.5360   24.8270 O.2     1  LIG1       -0.2710
     15  N         23.0690   16.9660   24.1730 N.am    1  LIG1       -0.3590
     16  C         24.3140   16.5770   23.5140 C.3     1  LIG1        0.1520
     17  C         23.0840   18.2830   24.7970 C.3     1  LIG1        0.1520
     18  C         24.1420    6.1610   25.5280 C.2     1  LIG1        0.2980
     19  O         24.2970    6.3100   24.3260 O.2     1  LIG1       -0.2590
     20  C         24.2890    4.8500   26.2100 C.ar    1  LIG1        0.0400
     21  C         23.1930    3.9950   26.3210 C.ar    1  LIG1        0.0200
     22  C         23.3310    2.7630   26.9610 C.ar    1  LIG1        0.0330
     23  C         24.5650    2.3870   27.4910 C.ar    1  LIG1        0.0750
     24  C         25.6620    3.2420   27.3800 C.ar    1  LIG1        0.0330
     25  C         25.5240    4.4730   26.7400 C.ar    1  LIG1        0.0200
     26  N         24.7030    1.1520   28.1330 N.pl3   1  LIG1       -0.0660
     27  C         24.8680    0.0740   27.4050 C.cat   1  LIG1        0.6920
     28  N         24.9250   -0.0040   26.0300 N.pl3   1  LIG1       -0.2330
     29  N         25.0080   -1.1590   27.9970 N.pl3   1  LIG1       -0.2330
     30  H         24.8360    0.8110   25.4870 H       1  LIG1        0.1740
     31  H         25.0520   -0.8770   25.5920 H       1  LIG1        0.1740
     32  H         24.9860   -1.2400   28.9780 H       1  LIG1        0.1740
     33  H         25.1310   -1.9620   27.4390 H       1  LIG1        0.1740
@<TRIPOS>BOND
     1    16    15    1
     2    12    13    1
     3    12    11    1
     4    15    13   am
     5    15    17    1
     6     8     5    1
     7     8     9    1
     8    13    14    2
     9    19    18    2
    10    11     9    1
    11     5     4   ar
    12     5     6   ar
    13     4     3   ar
    14     9    10    2
    15     6     7   ar
    16    30    28    1
    17     3     2   ar
    18    18    20    1
    19    18     1    1
    20    31    28    1
    21     7     2   ar
    22     2     1    1
    23    28    27    1
    24    20    21   ar
    25    20    25   ar
    26    21    22   ar
    27    25    24   ar
    28    22    23   ar
    29    24    23   ar
    30    27    29    1
    31    27    26    2
    32    33    29    1
    33    23    26    1
    34    29    32    1
@<TRIPOS>MOLECULE
./../dock_file/temp/cc6d6ec66a5504467592c92b48fea120/Camostat_Ligand_CID_2536:hmTMPRSS3:20230411234659/Camostat_Ligand_CID_2536:hmTMPRSS3_out_1.pdbqt
 33 34 0 0 0
SMALL
GASTEIGER

@<TRIPOS>ATOM
      1  O         15.9760   18.1200   13.1270 O.3     1  LIG1       -0.2750
      2  C         14.9080   18.8780   13.4980 C.ar    1  LIG1        0.0790
      3  C         14.8030   20.1980   13.0590 C.ar    1  LIG1        0.0380
      4  C         13.7090   20.9730   13.4400 C.ar    1  LIG1        0.0100
      5  C         12.7180   20.4300   14.2580 C.ar    1  LIG1       -0.0490
      6  C         12.8240   19.1090   14.6960 C.ar    1  LIG1        0.0100
      7  C         13.9190   18.3330   14.3160 C.ar    1  LIG1        0.0380
      8  C         11.5350   21.2680   14.6690 C.3     1  LIG1        0.1490
      9  C         11.1410   21.0610   16.1130 C.2     1  LIG1        0.2630
     10  O         10.0150   20.7940   16.5080 O.2     1  LIG1       -0.2650
     11  O         12.2440   21.2190   16.9170 O.3     1  LIG1       -0.3120
     12  C         12.0090   21.2040   18.3090 C.3     1  LIG1        0.2810
     13  C         12.1860   19.7970   18.8400 C.2     1  LIG1        0.2430
     14  O         13.0450   19.0730   18.3290 O.2     1  LIG1       -0.2710
     15  N         11.3630   19.4000   19.8950 N.am    1  LIG1       -0.3590
     16  C         10.3460   20.2320   20.5360 C.3     1  LIG1        0.1520
     17  C         11.5020   18.0580   20.4460 C.3     1  LIG1        0.1520
     18  C         17.1930   18.5350   13.6740 C.2     1  LIG1        0.2980
     19  O         17.9080   19.4220   13.2310 O.2     1  LIG1       -0.2590
     20  C         17.5360   17.7410   14.8810 C.ar    1  LIG1        0.0400
     21  C         16.9990   18.0880   16.1200 C.ar    1  LIG1        0.0200
     22  C         17.3210   17.3420   17.2530 C.ar    1  LIG1        0.0330
     23  C         18.1810   16.2490   17.1480 C.ar    1  LIG1        0.0750
     24  C         18.7190   15.9010   15.9090 C.ar    1  LIG1        0.0330
     25  C         18.3970   16.6480   14.7750 C.ar    1  LIG1        0.0200
     26  N         18.5040   15.5010   18.2850 N.pl3   1  LIG1       -0.0660
     27  C         19.5260   15.8710   19.0180 C.cat   1  LIG1        0.6920
     28  N         20.3600   16.9480   18.8050 N.pl3   1  LIG1       -0.2330
     29  N         19.8770   15.1630   20.1440 N.pl3   1  LIG1       -0.2330
     30  H         20.2150   17.5360   18.0300 H       1  LIG1        0.1740
     31  H         21.1010   17.1270   19.4290 H       1  LIG1        0.1740
     32  H         19.3580   14.3700   20.4070 H       1  LIG1        0.1740
     33  H         20.6460   15.4520   20.6870 H       1  LIG1        0.1740
@<TRIPOS>BOND
     1     3     4   ar
     2     3     2   ar
     3     1     2    1
     4     1    18    1
     5    19    18    2
     6     4     5   ar
     7     2     7   ar
     8    18    20    1
     9     5     8    1
    10     5     6   ar
    11     7     6   ar
    12     8     9    1
    13    25    20   ar
    14    25    24   ar
    15    20    21   ar
    16    24    23   ar
    17     9    10    2
    18     9    11    1
    19    21    22   ar
    20    11    12    1
    21    23    22   ar
    22    23    26    1
    23    30    28    1
    24    26    27    2
    25    12    13    1
    26    14    13    2
    27    28    27    1
    28    28    31    1
    29    13    15   am
    30    27    29    1
    31    15    17    1
    32    15    16    1
    33    29    32    1
    34    29    33    1
@<TRIPOS>MOLECULE
./../dock_file/temp/cc6d6ec66a5504467592c92b48fea120/Camostat_Ligand_CID_2536:hmTMPRSS3:20230411234659/Camostat_Ligand_CID_2536:hmTMPRSS3_out_1.pdbqt
 33 34 0 0 0
SMALL
GASTEIGER

@<TRIPOS>ATOM
      1  O         24.0920    6.8980   27.6580 O.3     1  LIG1       -0.2750
      2  C         24.0160    5.5450   27.5370 C.ar    1  LIG1        0.0790
      3  C         24.4450    4.7250   28.5820 C.ar    1  LIG1        0.0380
      4  C         24.3660    3.3390   28.4570 C.ar    1  LIG1        0.0100
      5  C         23.8570    2.7700   27.2890 C.ar    1  LIG1       -0.0490
      6  C         23.4280    3.5900   26.2450 C.ar    1  LIG1        0.0100
      7  C         23.5070    4.9770   26.3690 C.ar    1  LIG1        0.0380
      8  C         23.7720    1.2720   27.1550 C.3     1  LIG1        0.1490
      9  C         25.1260    0.6020   27.1680 C.2     1  LIG1        0.2630
     10  O         25.5420   -0.1380   28.0490 O.2     1  LIG1       -0.2650
     11  O         25.8210    0.9500   26.0340 O.3     1  LIG1       -0.3120
     12  C         27.1950    1.2280   26.2050 C.3     1  LIG1        0.2810
     13  C         27.3810    2.7000   26.5120 C.2     1  LIG1        0.2430
     14  O         27.0090    3.5310   25.6790 O.2     1  LIG1       -0.2710
     15  N         27.9620    3.0320   27.7360 N.am    1  LIG1       -0.3590
     16  C         28.4010    2.0780   28.7520 C.3     1  LIG1        0.1520
     17  C         28.1540    4.4350   28.0800 C.3     1  LIG1        0.1520
     18  C         25.0360    7.4970   26.8200 C.2     1  LIG1        0.2980
     19  O         26.2030    7.1550   26.7010 O.2     1  LIG1       -0.2590
     20  C         24.4450    8.6420   26.0810 C.ar    1  LIG1        0.0400
     21  C         25.2760    9.5860   25.4780 C.ar    1  LIG1        0.0200
     22  C         24.7210   10.6600   24.7830 C.ar    1  LIG1        0.0330
     23  C         23.3360   10.7920   24.6920 C.ar    1  LIG1        0.0750
     24  C         22.5040    9.8480   25.2950 C.ar    1  LIG1        0.0330
     25  C         23.0590    8.7730   25.9900 C.ar    1  LIG1        0.0200
     26  N         22.7790   11.8700   23.9950 N.pl3   1  LIG1       -0.0660
     27  C         22.6000   13.0060   24.6240 C.cat   1  LIG1        0.6920
     28  N         22.9010   13.2890   25.9380 N.pl3   1  LIG1       -0.2330
     29  N         22.0560   14.0900   23.9750 N.pl3   1  LIG1       -0.2330
     30  H         23.2960   12.5950   26.5130 H       1  LIG1        0.1740
     31  H         22.7190   14.1860   26.3020 H       1  LIG1        0.1740
     32  H         21.7980   14.0180   23.0280 H       1  LIG1        0.1740
     33  H         21.9270   14.9380   24.4580 H       1  LIG1        0.1740
@<TRIPOS>BOND
     1    32    29    1
     2    29    33    1
     3    29    27    1
     4    26    27    2
     5    26    23    1
     6    27    28    1
     7    23    22   ar
     8    23    24   ar
     9    22    21   ar
    10    24    25   ar
    11    21    20   ar
    12    14    13    2
    13    28    31    1
    14    28    30    1
    15    25    20   ar
    16    11    12    1
    17    11     9    1
    18    20    18    1
    19    12    13    1
    20     6     7   ar
    21     6     5   ar
    22     7     2   ar
    23    13    15   am
    24    19    18    2
    25    18     1    1
    26     8     9    1
    27     8     5    1
    28     9    10    2
    29     5     4   ar
    30     2     1    1
    31     2     3   ar
    32    15    17    1
    33    15    16    1
    34     4     3   ar
@<TRIPOS>MOLECULE
./../dock_file/temp/cc6d6ec66a5504467592c92b48fea120/Camostat_Ligand_CID_2536:hmTMPRSS3:20230411234659/Camostat_Ligand_CID_2536:hmTMPRSS3_out_1.pdbqt
 33 34 0 0 0
SMALL
GASTEIGER

@<TRIPOS>ATOM
      1  O         26.2080    9.4510   25.5920 O.3     1  LIG1       -0.2750
      2  C         25.5370    8.2870   25.8080 C.ar    1  LIG1        0.0790
      3  C         25.2280    7.8910   27.1100 C.ar    1  LIG1        0.0380
      4  C         24.5400    6.6980   27.3310 C.ar    1  LIG1        0.0100
      5  C         24.1610    5.9010   26.2500 C.ar    1  LIG1       -0.0490
      6  C         24.4710    6.2970   24.9490 C.ar    1  LIG1        0.0100
      7  C         25.1580    7.4900   24.7280 C.ar    1  LIG1        0.0380
      8  C         23.4180    4.6120   26.4890 C.3     1  LIG1        0.1490
      9  C         24.3290    3.4710   26.8790 C.2     1  LIG1        0.2630
     10  O         25.5400    3.4420   26.7130 O.2     1  LIG1       -0.2650
     11  O         23.5860    2.4660   27.4520 O.3     1  LIG1       -0.3120
     12  C         23.7310    1.1810   26.8860 C.3     1  LIG1        0.2810
     13  C         24.3780    0.2510   27.8920 C.2     1  LIG1        0.2430
     14  O         23.9470    0.2360   29.0480 O.2     1  LIG1       -0.2710
     15  N         25.4290   -0.5490   27.4430 N.am    1  LIG1       -0.3590
     16  C         25.9570   -0.5690   26.0810 C.3     1  LIG1        0.1520
     17  C         26.0780   -1.4660   28.3720 C.3     1  LIG1        0.1520
     18  C         25.8780   10.4780   26.4800 C.2     1  LIG1        0.2980
     19  O         26.3700   10.6500   27.5850 O.2     1  LIG1       -0.2590
     20  C         24.8180   11.3530   25.9170 C.ar    1  LIG1        0.0400
     21  C         24.4340   12.5080   26.5970 C.ar    1  LIG1        0.0200
     22  C         23.4390   13.3300   26.0680 C.ar    1  LIG1        0.0330
     23  C         22.8280   12.9970   24.8590 C.ar    1  LIG1        0.0750
     24  C         23.2120   11.8410   24.1790 C.ar    1  LIG1        0.0330
     25  C         24.2070   11.0190   24.7080 C.ar    1  LIG1        0.0200
     26  N         21.8300   13.8210   24.3290 N.pl3   1  LIG1       -0.0660
     27  C         22.1750   14.7960   23.5220 C.cat   1  LIG1        0.6920
     28  N         23.4480   15.1280   23.1120 N.pl3   1  LIG1       -0.2330
     29  N         21.2250   15.6290   22.9800 N.pl3   1  LIG1       -0.2330
     30  H         24.2200   14.6080   23.4310 H       1  LIG1        0.1740
     31  H         23.5850   15.8870   22.5000 H       1  LIG1        0.1740
     32  H         20.2740   15.4960   23.1940 H       1  LIG1        0.1740
     33  H         21.4970   16.3570   22.3750 H       1  LIG1        0.1740
@<TRIPOS>BOND
     1    33    29    1
     2    31    28    1
     3    29    32    1
     4    29    27    1
     5    28    30    1
     6    28    27    1
     7    27    26    2
     8    24    25   ar
     9    24    23   ar
    10    26    23    1
    11    25    20   ar
    12     7     6   ar
    13     7     2   ar
    14    23    22   ar
    15     6     5   ar
    16     1     2    1
    17     1    18    1
    18     2     3   ar
    19    20    18    1
    20    20    21   ar
    21    22    21   ar
    22    16    15    1
    23     5     8    1
    24     5     4   ar
    25    18    19    2
    26     8     9    1
    27    10     9    2
    28     9    11    1
    29    12    11    1
    30    12    13    1
    31     3     4   ar
    32    15    13   am
    33    15    17    1
    34    13    14    2
@<TRIPOS>MOLECULE
./../dock_file/temp/cc6d6ec66a5504467592c92b48fea120/Camostat_Ligand_CID_2536:hmTMPRSS3:20230411234659/Camostat_Ligand_CID_2536:hmTMPRSS3_out_1.pdbqt
 33 34 0 0 0
SMALL
GASTEIGER

@<TRIPOS>ATOM
      1  O         23.7360    7.0180   26.4720 O.3     1  LIG1       -0.2750
      2  C         23.7640    8.2570   25.9090 C.ar    1  LIG1        0.0790
      3  C         24.9850    8.8760   25.6430 C.ar    1  LIG1        0.0380
      4  C         25.0130   10.1450   25.0670 C.ar    1  LIG1        0.0100
      5  C         23.8190   10.7960   24.7540 C.ar    1  LIG1       -0.0490
      6  C         22.5970   10.1770   25.0200 C.ar    1  LIG1        0.0100
      7  C         22.5700    8.9070   25.5970 C.ar    1  LIG1        0.0380
      8  C         23.8490   12.1670   24.1310 C.3     1  LIG1        0.1490
      9  C         22.8310   13.1090   24.7310 C.2     1  LIG1        0.2630
     10  O         21.8050   13.4870   24.1820 O.2     1  LIG1       -0.2650
     11  O         23.2330   13.4770   25.9920 O.3     1  LIG1       -0.3120
     12  C         22.7740   14.7310   26.4530 C.3     1  LIG1        0.2810
     13  C         22.5040   14.6580   27.9420 C.2     1  LIG1        0.2430
     14  O         23.3360   14.1110   28.6700 O.2     1  LIG1       -0.2710
     15  N         21.3190   15.2290   28.4080 N.am    1  LIG1       -0.3590
     16  C         20.3180   15.8970   27.5800 C.3     1  LIG1        0.1520
     17  C         21.0190   15.1920   29.8330 C.3     1  LIG1        0.1520
     18  C         23.8800    5.9690   25.5610 C.2     1  LIG1        0.2980
     19  O         23.8580    6.0750   24.3440 O.2     1  LIG1       -0.2590
     20  C         24.0510    4.6710   26.2610 C.ar    1  LIG1        0.0400
     21  C         23.0150    3.7380   26.2630 C.ar    1  LIG1        0.0200
     22  C         23.1760    2.5180   26.9200 C.ar    1  LIG1        0.0330
     23  C         24.3730    2.2320   27.5760 C.ar    1  LIG1        0.0750
     24  C         25.4100    3.1650   27.5750 C.ar    1  LIG1        0.0330
     25  C         25.2490    4.3850   26.9170 C.ar    1  LIG1        0.0200
     26  N         24.5350    1.0090   28.2360 N.pl3   1  LIG1       -0.0660
     27  C         24.8350   -0.0560   27.5310 C.cat   1  LIG1        0.6920
     28  N         25.0210   -0.1300   26.1680 N.pl3   1  LIG1       -0.2330
     29  N         25.0030   -1.2770   28.1410 N.pl3   1  LIG1       -0.2330
     30  H         24.9280    0.6780   25.6140 H       1  LIG1        0.1740
     31  H         25.2440   -0.9920   25.7480 H       1  LIG1        0.1740
     32  H         24.8980   -1.3590   29.1160 H       1  LIG1        0.1740
     33  H         25.2290   -2.0690   27.6020 H       1  LIG1        0.1740
@<TRIPOS>BOND
     1     8     9    1
     2     8     5    1
     3    10     9    2
     4    19    18    2
     5     9    11    1
     6     5     6   ar
     7     5     4   ar
     8     6     7   ar
     9     4     3   ar
    10    18    20    1
    11    18     1    1
    12     7     2   ar
    13    30    28    1
    14     3     2   ar
    15    31    28    1
    16     2     1    1
    17    11    12    1
    18    28    27    1
    19    20    21   ar
    20    20    25   ar
    21    21    22   ar
    22    12    13    1
    23    25    24   ar
    24    22    23   ar
    25    27    29    1
    26    27    26    2
    27    24    23   ar
    28    23    26    1
    29    16    15    1
    30    33    29    1
    31    13    15   am
    32    13    14    2
    33    29    32    1
    34    15    17    1
@<TRIPOS>MOLECULE
./../dock_file/temp/cc6d6ec66a5504467592c92b48fea120/Camostat_Ligand_CID_2536:hmTMPRSS3:20230411234659/Camostat_Ligand_CID_2536:hmTMPRSS3_out_1.pdbqt
 33 34 0 0 0
SMALL
GASTEIGER

@<TRIPOS>ATOM
      1  O         23.7200    7.4700   26.8710 O.3     1  LIG1       -0.2750
      2  C         23.7240    8.6580   26.2080 C.ar    1  LIG1        0.0790
      3  C         22.5400    9.1580   25.6640 C.ar    1  LIG1        0.0380
      4  C         22.5440   10.3750   24.9850 C.ar    1  LIG1        0.0100
      5  C         23.7320   11.0960   24.8510 C.ar    1  LIG1       -0.0490
      6  C         24.9150   10.5960   25.3950 C.ar    1  LIG1        0.0100
      7  C         24.9110    9.3780   26.0740 C.ar    1  LIG1        0.0380
      8  C         23.7360   12.4120   24.1170 C.3     1  LIG1        0.1490
      9  C         22.7530   13.4070   24.6870 C.2     1  LIG1        0.2630
     10  O         21.6860   13.7210   24.1770 O.2     1  LIG1       -0.2650
     11  O         23.2400   13.9070   25.8710 O.3     1  LIG1       -0.3120
     12  C         24.4540   14.6230   25.7940 C.3     1  LIG1        0.2810
     13  C         24.1800   16.0450   25.3500 C.2     1  LIG1        0.2430
     14  O         23.4800   16.7660   26.0660 O.2     1  LIG1       -0.2710
     15  N         24.7500   16.4630   24.1460 N.am    1  LIG1       -0.3590
     16  C         25.5950   15.6440   23.2800 C.3     1  LIG1        0.1520
     17  C         24.5220   17.8250   23.6810 C.3     1  LIG1        0.1520
     18  C         23.9770    6.3600   26.0620 C.2     1  LIG1        0.2980
     19  O         24.1910    6.3890   24.8600 O.2     1  LIG1       -0.2590
     20  C         23.9420    5.1030   26.8520 C.ar    1  LIG1        0.0400
     21  C         24.4240    5.0870   28.1600 C.ar    1  LIG1        0.0200
     22  C         24.3910    3.9060   28.9020 C.ar    1  LIG1        0.0330
     23  C         23.8760    2.7400   28.3350 C.ar    1  LIG1        0.0750
     24  C         23.3940    2.7550   27.0260 C.ar    1  LIG1        0.0330
     25  C         23.4270    3.9360   26.2840 C.ar    1  LIG1        0.0200
     26  N         23.8430    1.5560   29.0790 N.pl3   1  LIG1       -0.0660
     27  C         22.7920    1.3030   29.8200 C.cat   1  LIG1        0.6920
     28  N         21.6670    2.0850   29.9690 N.pl3   1  LIG1       -0.2330
     29  N         22.7200    0.1500   30.5660 N.pl3   1  LIG1       -0.2330
     30  H         21.5950    2.9400   29.4870 H       1  LIG1        0.1740
     31  H         20.9360    1.7890   30.5590 H       1  LIG1        0.1740
     32  H         23.4620   -0.4960   30.5470 H       1  LIG1        0.1740
     33  H         21.9250   -0.0290   31.1190 H       1  LIG1        0.1740
@<TRIPOS>BOND
     1    16    15    1
     2    17    15    1
     3     8     9    1
     4     8     5    1
     5    15    13   am
     6    10     9    2
     7     9    11    1
     8     5     4   ar
     9     5     6   ar
    10    19    18    2
    11     4     3   ar
    12    13    12    1
    13    13    14    2
    14     6     7   ar
    15     3     2   ar
    16    12    11    1
    17    18    20    1
    18    18     1    1
    19     7     2   ar
    20     2     1    1
    21    25    20   ar
    22    25    24   ar
    23    20    21   ar
    24    24    23   ar
    25    21    22   ar
    26    23    22   ar
    27    23    26    1
    28    26    27    2
    29    30    28    1
    30    27    28    1
    31    27    29    1
    32    28    31    1
    33    32    29    1
    34    29    33    1
@<TRIPOS>MOLECULE
./../dock_file/temp/cc6d6ec66a5504467592c92b48fea120/Camostat_Ligand_CID_2536:hmTMPRSS3:20230411234659/Camostat_Ligand_CID_2536:hmTMPRSS3_out_1.pdbqt
 33 34 0 0 0
SMALL
GASTEIGER

@<TRIPOS>ATOM
      1  O         25.5400    8.8480   24.9150 O.3     1  LIG1       -0.2750
      2  C         25.3580    7.5990   25.4240 C.ar    1  LIG1        0.0790
      3  C         24.2010    7.3010   26.1440 C.ar    1  LIG1        0.0380
      4  C         24.0150    6.0210   26.6650 C.ar    1  LIG1        0.0100
      5  C         24.9850    5.0380   26.4650 C.ar    1  LIG1       -0.0490
      6  C         26.1420    5.3370   25.7450 C.ar    1  LIG1        0.0100
      7  C         26.3280    6.6170   25.2240 C.ar    1  LIG1        0.0380
      8  C         24.7840    3.6550   27.0280 C.3     1  LIG1        0.1490
      9  C         25.2410    3.5310   28.4630 C.2     1  LIG1        0.2630
     10  O         25.8520    4.3860   29.0880 O.2     1  LIG1       -0.2650
     11  O         24.8630    2.3060   28.9600 O.3     1  LIG1       -0.3120
     12  C         24.4480    1.3470   28.0110 C.3     1  LIG1        0.2810
     13  C         23.1540    0.7070   28.4650 C.2     1  LIG1        0.2430
     14  O         23.0840    0.2590   29.6130 O.2     1  LIG1       -0.2710
     15  N         22.1000    0.6680   27.5510 N.am    1  LIG1       -0.3590
     16  C         22.1400    1.1990   26.1900 C.3     1  LIG1        0.1520
     17  C         20.8320    0.0690   27.9450 C.3     1  LIG1        0.1520
     18  C         25.5230    9.8660   25.8710 C.2     1  LIG1        0.2980
     19  O         26.1940    9.8970   26.8920 O.2     1  LIG1       -0.2590
     20  C         24.5570   10.9310   25.5020 C.ar    1  LIG1        0.0400
     21  C         24.4720   12.0930   26.2690 C.ar    1  LIG1        0.0200
     22  C         23.5640   13.0930   25.9220 C.ar    1  LIG1        0.0330
     23  C         22.7400   12.9320   24.8080 C.ar    1  LIG1        0.0750
     24  C         22.8250   11.7700   24.0400 C.ar    1  LIG1        0.0330
     25  C         23.7330   10.7700   24.3870 C.ar    1  LIG1        0.0200
     26  N         21.8300   13.9360   24.4600 N.pl3   1  LIG1       -0.0660
     27  C         22.2140   14.8840   23.6390 C.cat   1  LIG1        0.6920
     28  N         23.4520   15.0260   23.0500 N.pl3   1  LIG1       -0.2330
     29  N         21.3500   15.8880   23.2720 N.pl3   1  LIG1       -0.2330
     30  H         24.1620   14.3710   23.2330 H       1  LIG1        0.1740
     31  H         23.6250   15.7860   22.4470 H       1  LIG1        0.1740
     32  H         20.4310   15.9000   23.6250 H       1  LIG1        0.1740
     33  H         21.6500   16.5940   22.6550 H       1  LIG1        0.1740
@<TRIPOS>BOND
     1    31    28    1
     2    33    29    1
     3    28    30    1
     4    28    27    1
     5    29    32    1
     6    29    27    1
     7    27    26    2
     8    24    25   ar
     9    24    23   ar
    10    25    20   ar
    11    26    23    1
    12    23    22   ar
    13     1     2    1
    14     1    18    1
    15     7     2   ar
    16     7     6   ar
    17     2     3   ar
    18    20    18    1
    19    20    21   ar
    20     6     5   ar
    21    18    19    2
    22    22    21   ar
    23     3     4   ar
    24    16    15    1
    25     5     4   ar
    26     5     8    1
    27     8     9    1
    28    15    17    1
    29    15    13   am
    30    12    13    1
    31    12    11    1
    32     9    11    1
    33     9    10    2
    34    13    14    2
@<TRIPOS>MOLECULE
./../dock_file/temp/cc6d6ec66a5504467592c92b48fea120/Camostat_Ligand_CID_2536:hmTMPRSS3:20230411234659/Camostat_Ligand_CID_2536:hmTMPRSS3_out_1.pdbqt
 33 34 0 0 0
SMALL
GASTEIGER

@<TRIPOS>ATOM
      1  O         24.1520    6.9010   25.6520 O.3     1  LIG1       -0.2750
      2  C         23.9030    8.2110   25.3770 C.ar    1  LIG1        0.0790
      3  C         22.6090    8.7160   25.5000 C.ar    1  LIG1        0.0380
      4  C         22.3550   10.0580   25.2180 C.ar    1  LIG1        0.0100
      5  C         23.3950   10.8960   24.8140 C.ar    1  LIG1       -0.0490
      6  C         24.6900   10.3900   24.6920 C.ar    1  LIG1        0.0100
      7  C         24.9440    9.0470   24.9730 C.ar    1  LIG1        0.0380
      8  C         23.1210   12.3450   24.5100 C.3     1  LIG1        0.1490
      9  C         23.5030   13.2680   25.6440 C.2     1  LIG1        0.2630
     10  O         23.7940   12.9140   26.7780 O.2     1  LIG1       -0.2650
     11  O         23.4760   14.5710   25.2050 O.3     1  LIG1       -0.3120
     12  C         23.1650   15.5490   26.1740 C.3     1  LIG1        0.2810
     13  C         21.6650   15.6080   26.3770 C.2     1  LIG1        0.2430
     14  O         20.9420   15.8120   25.3980 O.2     1  LIG1       -0.2710
     15  N         21.1840   15.4150   27.6720 N.am    1  LIG1       -0.3590
     16  C         22.0070   15.1560   28.8520 C.3     1  LIG1        0.1520
     17  C         19.7480   15.4540   27.9160 C.3     1  LIG1        0.1520
     18  C         24.3860    6.6320   27.0020 C.2     1  LIG1        0.2980
     19  O         24.7180    7.4510   27.8450 O.2     1  LIG1       -0.2590
     20  C         24.1960    5.1900   27.3010 C.ar    1  LIG1        0.0400
     21  C         24.5470    4.6850   28.5530 C.ar    1  LIG1        0.0200
     22  C         24.3680    3.3300   28.8340 C.ar    1  LIG1        0.0330
     23  C         23.8380    2.4800   27.8630 C.ar    1  LIG1        0.0750
     24  C         23.4860    2.9850   26.6110 C.ar    1  LIG1        0.0330
     25  C         23.6650    4.3400   26.3300 C.ar    1  LIG1        0.0200
     26  N         23.6580    1.1220   28.1450 N.pl3   1  LIG1       -0.0660
     27  C         22.4570    0.6920   28.4510 C.cat   1  LIG1        0.6920
     28  N         21.3000    1.4360   28.5340 N.pl3   1  LIG1       -0.2330
     29  N         22.2380   -0.6360   28.7340 N.pl3   1  LIG1       -0.2330
     30  H         21.3230    2.4030   28.3540 H       1  LIG1        0.1740
     31  H         20.4510    0.9990   28.7750 H       1  LIG1        0.1740
     32  H         22.9860   -1.2750   28.7090 H       1  LIG1        0.1740
     33  H         21.3320   -0.9470   28.9620 H       1  LIG1        0.1740
@<TRIPOS>BOND
     1     8     5    1
     2     8     9    1
     3     6     5   ar
     4     6     7   ar
     5     5     4   ar
     6     7     2   ar
     7    11     9    1
     8    11    12    1
     9     4     3   ar
    10     2     3   ar
    11     2     1    1
    12    14    13    2
    13     9    10    2
    14     1    18    1
    15    12    13    1
    16    25    24   ar
    17    25    20   ar
    18    13    15   am
    19    24    23   ar
    20    18    20    1
    21    18    19    2
    22    20    21   ar
    23    15    17    1
    24    15    16    1
    25    23    26    1
    26    23    22   ar
    27    26    27    2
    28    30    28    1
    29    27    28    1
    30    27    29    1
    31    28    31    1
    32    21    22   ar
    33    32    29    1
    34    29    33    1
@<TRIPOS>MOLECULE
./../dock_file/temp/cc6d6ec66a5504467592c92b48fea120/Camostat_Ligand_CID_2536:hmTMPRSS3:20230411234659/Camostat_Ligand_CID_2536:hmTMPRSS3_out_1.pdbqt
 33 34 0 0 0
SMALL
GASTEIGER

@<TRIPOS>ATOM
      1  O         24.5660    8.7870   26.0010 O.3     1  LIG1       -0.2750
      2  C         24.3340    7.4620   26.2110 C.ar    1  LIG1        0.0790
      3  C         23.9530    6.6430   25.1480 C.ar    1  LIG1        0.0380
      4  C         23.7160    5.2860   25.3630 C.ar    1  LIG1        0.0100
      5  C         23.8610    4.7460   26.6420 C.ar    1  LIG1       -0.0490
      6  C         24.2420    5.5660   27.7050 C.ar    1  LIG1        0.0100
      7  C         24.4790    6.9230   27.4890 C.ar    1  LIG1        0.0380
      8  C         23.6050    3.2800   26.8750 C.3     1  LIG1        0.1490
      9  C         24.7610    2.5800   27.5510 C.2     1  LIG1        0.2630
     10  O         24.8310    2.3190   28.7440 O.2     1  LIG1       -0.2650
     11  O         25.7250    2.2800   26.6180 O.3     1  LIG1       -0.3120
     12  C         27.0390    2.7000   26.9220 C.3     1  LIG1        0.2810
     13  C         27.3320    4.0070   26.2150 C.2     1  LIG1        0.2430
     14  O         27.2000    4.0610   24.9890 O.2     1  LIG1       -0.2710
     15  N         27.7310    5.0870   27.0020 N.am    1  LIG1       -0.3590
     16  C         27.8850    5.0660   28.4550 C.3     1  LIG1        0.1520
     17  C         28.0160    6.3680   26.3680 C.3     1  LIG1        0.1520
     18  C         23.4110    9.5720   25.9610 C.2     1  LIG1        0.2980
     19  O         22.3190    9.2580   26.4080 O.2     1  LIG1       -0.2590
     20  C         23.6680   10.8660   25.2770 C.ar    1  LIG1        0.0400
     21  C         22.6710   11.4530   24.4990 C.ar    1  LIG1        0.0200
     22  C         22.9120   12.6680   23.8580 C.ar    1  LIG1        0.0330
     23  C         24.1500   13.2950   23.9940 C.ar    1  LIG1        0.0750
     24  C         25.1470   12.7080   24.7720 C.ar    1  LIG1        0.0330
     25  C         24.9070   11.4930   25.4140 C.ar    1  LIG1        0.0200
     26  N         24.3910   14.5140   23.3500 N.pl3   1  LIG1       -0.0660
     27  C         23.8750   15.6090   23.8540 C.cat   1  LIG1        0.6920
     28  N         23.0930   15.7210   24.9830 N.pl3   1  LIG1       -0.2330
     29  N         24.0890   16.8270   23.2520 N.pl3   1  LIG1       -0.2330
     30  H         22.8650   14.9200   25.5050 H       1  LIG1        0.1740
     31  H         22.7600   16.6050   25.2650 H       1  LIG1        0.1740
     32  H         24.6340   16.8830   22.4350 H       1  LIG1        0.1740
     33  H         23.6960   17.6430   23.6400 H       1  LIG1        0.1740
@<TRIPOS>BOND
     1    32    29    1
     2    29    33    1
     3    29    27    1
     4    26    27    2
     5    26    23    1
     6    27    28    1
     7    22    23   ar
     8    22    21   ar
     9    23    24   ar
    10    21    20   ar
    11    24    25   ar
    12    28    31    1
    13    28    30    1
    14    14    13    2
    15     3     4   ar
    16     3     2   ar
    17    20    25   ar
    18    20    18    1
    19     4     5   ar
    20    18     1    1
    21    18    19    2
    22     1     2    1
    23     2     7   ar
    24    13    12    1
    25    13    15   am
    26    17    15    1
    27    11    12    1
    28    11     9    1
    29     5     8    1
    30     5     6   ar
    31     8     9    1
    32    15    16    1
    33     7     6   ar
    34     9    10    2
