@<TRIPOS>MOLECULE
./../dock_file/temp/cc6d6ec66a5504467592c92b48fea120/Camostat_Ligand_CID_2536:hmTMPRSS3:20230411234659/Camostat_Ligand_CID_2536:hmTMPRSS3_out_3.pdbqt
 33 34 0 0 0
SMALL
GASTEIGER

@<TRIPOS>ATOM
      1  O         -5.6960  -11.6510   24.2930 O.3     1  LIG1       -0.2750
      2  C         -5.6160  -11.1030   25.5370 C.ar    1  LIG1        0.0790
      3  C         -5.6570  -11.9230   26.6650 C.ar    1  LIG1        0.0380
      4  C         -5.5750  -11.3620   27.9380 C.ar    1  LIG1        0.0100
      5  C         -5.4510   -9.9800   28.0850 C.ar    1  LIG1       -0.0490
      6  C         -5.4100   -9.1600   26.9570 C.ar    1  LIG1        0.0100
      7  C         -5.4920   -9.7220   25.6830 C.ar    1  LIG1        0.0380
      8  C         -5.3620   -9.3730   29.4610 C.3     1  LIG1        0.1490
      9  C         -4.1790   -8.4470   29.6220 C.2     1  LIG1        0.2630
     10  O         -4.2310   -7.2940   30.0240 O.2     1  LIG1       -0.2650
     11  O         -3.0300   -9.1020   29.2470 O.3     1  LIG1       -0.3120
     12  C         -2.6760  -10.2320   30.0150 C.3     1  LIG1        0.2810
     13  C         -1.2140  -10.5600   29.7960 C.2     1  LIG1        0.2430
     14  O         -0.5770   -9.9060   28.9660 O.2     1  LIG1       -0.2710
     15  N         -0.6640  -11.5880   30.5630 N.am    1  LIG1       -0.3590
     16  C         -1.3800  -12.3740   31.5650 C.3     1  LIG1        0.1520
     17  C          0.7420  -11.9340   30.3940 C.3     1  LIG1        0.1520
     18  C         -4.5450  -11.4880   23.5180 C.2     1  LIG1        0.2980
     19  O         -3.3950  -11.5780   23.9220 O.2     1  LIG1       -0.2590
     20  C         -4.8890  -11.1660   22.1100 C.ar    1  LIG1        0.0400
     21  C         -6.1760  -10.7370   21.7870 C.ar    1  LIG1        0.0200
     22  C         -6.4980  -10.4350   20.4640 C.ar    1  LIG1        0.0330
     23  C         -5.5350  -10.5630   19.4640 C.ar    1  LIG1        0.0750
     24  C         -4.2470  -10.9920   19.7870 C.ar    1  LIG1        0.0330
     25  C         -3.9240  -11.2940   21.1100 C.ar    1  LIG1        0.0200
     26  N         -5.8590  -10.2600   18.1370 N.pl3   1  LIG1       -0.0660
     27  C         -6.0890   -9.0110   17.8100 C.cat   1  LIG1        0.6920
     28  N         -6.0520   -7.9100   18.6400 N.pl3   1  LIG1       -0.2330
     29  N         -6.4100   -8.6710   16.5170 N.pl3   1  LIG1       -0.2330
     30  H         -5.8340   -8.0200   19.5930 H       1  LIG1        0.1740
     31  H         -6.2450   -7.0150   18.2770 H       1  LIG1        0.1740
     32  H         -6.4690   -9.3680   15.8250 H       1  LIG1        0.1740
     33  H         -6.5800   -7.7290   16.2840 H       1  LIG1        0.1740
@<TRIPOS>BOND
     1    32    29    1
     2    33    29    1
     3    29    27    1
     4    27    26    2
     5    27    28    1
     6    26    23    1
     7    31    28    1
     8    28    30    1
     9    23    24   ar
    10    23    22   ar
    11    24    25   ar
    12    22    21   ar
    13    25    20   ar
    14    21    20   ar
    15    20    18    1
    16    18    19    2
    17    18     1    1
    18     1     2    1
    19     2     7   ar
    20     2     3   ar
    21     7     6   ar
    22     3     4   ar
    23     6     5   ar
    24     4     5   ar
    25     5     8    1
    26    14    13    2
    27    11     9    1
    28    11    12    1
    29     8     9    1
    30     9    10    2
    31    13    12    1
    32    13    15   am
    33    17    15    1
    34    15    16    1
@<TRIPOS>MOLECULE
./../dock_file/temp/cc6d6ec66a5504467592c92b48fea120/Camostat_Ligand_CID_2536:hmTMPRSS3:20230411234659/Camostat_Ligand_CID_2536:hmTMPRSS3_out_3.pdbqt
 33 34 0 0 0
SMALL
GASTEIGER

@<TRIPOS>ATOM
      1  O         -5.6810  -11.2800   24.6460 O.3     1  LIG1       -0.2750
      2  C         -5.4160  -10.5780   25.7820 C.ar    1  LIG1        0.0790
      3  C         -5.3750   -9.1840   25.7480 C.ar    1  LIG1        0.0380
      4  C         -5.1040   -8.4660   26.9120 C.ar    1  LIG1        0.0100
      5  C         -4.8740   -9.1410   28.1110 C.ar    1  LIG1       -0.0490
      6  C         -4.9150  -10.5350   28.1450 C.ar    1  LIG1        0.0100
      7  C         -5.1870  -11.2540   26.9810 C.ar    1  LIG1        0.0380
      8  C         -4.5810   -8.3650   29.3690 C.3     1  LIG1        0.1490
      9  C         -5.6460   -7.3430   29.6930 C.2     1  LIG1        0.2630
     10  O         -6.8030   -7.5970   29.9960 O.2     1  LIG1       -0.2650
     11  O         -5.1130   -6.0790   29.5950 O.3     1  LIG1       -0.3120
     12  C         -5.7190   -5.2180   28.6550 C.3     1  LIG1        0.2810
     13  C         -6.4520   -4.1080   29.3790 C.2     1  LIG1        0.2430
     14  O         -6.1730   -3.8830   30.5590 O.2     1  LIG1       -0.2710
     15  N         -7.4070   -3.3910   28.6560 N.am    1  LIG1       -0.3590
     16  C         -7.7550   -3.6170   27.2550 C.3     1  LIG1        0.1520
     17  C         -8.1330   -2.3080   29.3080 C.3     1  LIG1        0.1520
     18  C         -4.5900  -11.4100   23.7840 C.2     1  LIG1        0.2980
     19  O         -3.4530  -11.7110   24.1140 O.2     1  LIG1       -0.2590
     20  C         -4.9780  -11.1180   22.3810 C.ar    1  LIG1        0.0400
     21  C         -4.0610  -11.3110   21.3490 C.ar    1  LIG1        0.0200
     22  C         -4.4260  -11.0370   20.0310 C.ar    1  LIG1        0.0330
     23  C         -5.7080  -10.5670   19.7450 C.ar    1  LIG1        0.0750
     24  C         -6.6260  -10.3730   20.7780 C.ar    1  LIG1        0.0330
     25  C         -6.2610  -10.6480   22.0960 C.ar    1  LIG1        0.0200
     26  N         -6.0740  -10.2920   18.4230 N.pl3   1  LIG1       -0.0660
     27  C         -6.1730   -9.0410   18.0410 C.cat   1  LIG1        0.6920
     28  N         -5.9550   -7.9150   18.8040 N.pl3   1  LIG1       -0.2330
     29  N         -6.5300   -8.7280   16.7500 N.pl3   1  LIG1       -0.2330
     30  H         -5.6940   -8.0030   19.7490 H       1  LIG1        0.1740
     31  H         -6.0620   -7.0210   18.4040 H       1  LIG1        0.1740
     32  H         -6.7130   -9.4450   16.1020 H       1  LIG1        0.1740
     33  H         -6.6010   -7.7850   16.4750 H       1  LIG1        0.1740
@<TRIPOS>BOND
     1    32    29    1
     2    33    29    1
     3    29    27    1
     4    27    26    2
     5    27    28    1
     6    31    28    1
     7    26    23    1
     8    28    30    1
     9    23    22   ar
    10    23    24   ar
    11    22    21   ar
    12    24    25   ar
    13    21    20   ar
    14    25    20   ar
    15    20    18    1
    16    18    19    2
    17    18     1    1
    18     1     2    1
    19     3     2   ar
    20     3     4   ar
    21     2     7   ar
    22     4     5   ar
    23     7     6   ar
    24    16    15    1
    25     5     6   ar
    26     5     8    1
    27    12    13    1
    28    12    11    1
    29    15    17    1
    30    15    13   am
    31     8     9    1
    32    13    14    2
    33    11     9    1
    34     9    10    2
@<TRIPOS>MOLECULE
./../dock_file/temp/cc6d6ec66a5504467592c92b48fea120/Camostat_Ligand_CID_2536:hmTMPRSS3:20230411234659/Camostat_Ligand_CID_2536:hmTMPRSS3_out_3.pdbqt
 33 34 0 0 0
SMALL
GASTEIGER

@<TRIPOS>ATOM
      1  O         -6.3760    2.4410   16.8810 O.3     1  LIG1       -0.2750
      2  C         -7.6100    2.0740   17.3220 C.ar    1  LIG1        0.0790
      3  C         -7.8500    0.7560   17.7110 C.ar    1  LIG1        0.0380
      4  C         -9.1140    0.3810   18.1630 C.ar    1  LIG1        0.0100
      5  C        -10.1400    1.3240   18.2280 C.ar    1  LIG1       -0.0490
      6  C         -9.9010    2.6420   17.8390 C.ar    1  LIG1        0.0100
      7  C         -8.6360    3.0180   17.3870 C.ar    1  LIG1        0.0380
      8  C        -11.5070    0.9190   18.7160 C.3     1  LIG1        0.1490
      9  C        -11.5330    0.5930   20.1910 C.2     1  LIG1        0.2630
     10  O        -11.9970   -0.4250   20.6840 O.2     1  LIG1       -0.2650
     11  O        -10.9520    1.6190   20.8980 O.3     1  LIG1       -0.3120
     12  C        -11.2900    1.7050   22.2660 C.3     1  LIG1        0.2810
     13  C        -11.8220    3.0890   22.5740 C.2     1  LIG1        0.2430
     14  O        -12.2830    3.7660   21.6510 O.2     1  LIG1       -0.2710
     15  N        -11.7650    3.5190   23.9000 N.am    1  LIG1       -0.3590
     16  C        -11.2410    2.7420   25.0210 C.3     1  LIG1        0.1520
     17  C        -12.2730    4.8400   24.2470 C.3     1  LIG1        0.1520
     18  C         -6.3630    2.9740   15.5900 C.2     1  LIG1        0.2980
     19  O         -6.8390    2.4470   14.5960 O.2     1  LIG1       -0.2590
     20  C         -5.6680    4.2860   15.5600 C.ar    1  LIG1        0.0400
     21  C         -5.6920    5.1140   16.6810 C.ar    1  LIG1        0.0200
     22  C         -5.0390    6.3460   16.6530 C.ar    1  LIG1        0.0330
     23  C         -4.3620    6.7510   15.5030 C.ar    1  LIG1        0.0750
     24  C         -4.3370    5.9230   14.3810 C.ar    1  LIG1        0.0330
     25  C         -4.9900    4.6910   14.4090 C.ar    1  LIG1        0.0200
     26  N         -3.7060    7.9870   15.4750 N.pl3   1  LIG1       -0.0660
     27  C         -2.5640    8.1130   16.1070 C.cat   1  LIG1        0.6920
     28  N         -1.8960    7.1450   16.8250 N.pl3   1  LIG1       -0.2330
     29  N         -1.8880    9.3110   16.1030 N.pl3   1  LIG1       -0.2330
     30  H         -2.2770    6.2410   16.9050 H       1  LIG1        0.1740
     31  H         -1.0390    7.3600   17.2600 H       1  LIG1        0.1740
     32  H         -2.2610   10.0840   15.6230 H       1  LIG1        0.1740
     33  H         -1.0310    9.3930   16.5810 H       1  LIG1        0.1740
@<TRIPOS>BOND
     1    24    25   ar
     2    24    23   ar
     3    25    20   ar
     4    19    18    2
     5    26    23    1
     6    26    27    2
     7    23    22   ar
     8    20    18    1
     9    20    21   ar
    10    18     1    1
    11    32    29    1
    12    29    27    1
    13    29    33    1
    14    27    28    1
    15    22    21   ar
    16    28    30    1
    17    28    31    1
    18     1     2    1
    19     2     7   ar
    20     2     3   ar
    21     7     6   ar
    22     3     4   ar
    23     6     5   ar
    24     4     5   ar
    25     5     8    1
    26     8     9    1
    27     9    10    2
    28     9    11    1
    29    11    12    1
    30    14    13    2
    31    12    13    1
    32    13    15   am
    33    15    17    1
    34    15    16    1
@<TRIPOS>MOLECULE
./../dock_file/temp/cc6d6ec66a5504467592c92b48fea120/Camostat_Ligand_CID_2536:hmTMPRSS3:20230411234659/Camostat_Ligand_CID_2536:hmTMPRSS3_out_3.pdbqt
 33 34 0 0 0
SMALL
GASTEIGER

@<TRIPOS>ATOM
      1  O         -4.6050   -9.2030   28.4000 O.3     1  LIG1       -0.2750
      2  C         -5.2980   -8.2170   29.0340 C.ar    1  LIG1        0.0790
      3  C         -4.7010   -7.4980   30.0690 C.ar    1  LIG1        0.0380
      4  C         -5.4110   -6.4890   30.7170 C.ar    1  LIG1        0.0100
      5  C         -6.7190   -6.1970   30.3310 C.ar    1  LIG1       -0.0490
      6  C         -7.3170   -6.9170   29.2960 C.ar    1  LIG1        0.0100
      7  C         -6.6060   -7.9270   28.6470 C.ar    1  LIG1        0.0380
      8  C         -7.4870   -5.1070   31.0320 C.3     1  LIG1        0.1490
      9  C         -8.3320   -4.2810   30.0890 C.2     1  LIG1        0.2630
     10  O         -9.5490   -4.3440   29.9880 O.2     1  LIG1       -0.2650
     11  O         -7.5200   -3.4450   29.3590 O.3     1  LIG1       -0.3120
     12  C         -7.9950   -3.0720   28.0830 C.3     1  LIG1        0.2810
     13  C         -7.5440   -4.0880   27.0550 C.2     1  LIG1        0.2430
     14  O         -6.3360   -4.2110   26.8320 O.2     1  LIG1       -0.2710
     15  N         -8.5320   -4.8410   26.4180 N.am    1  LIG1       -0.3590
     16  C         -9.9680   -4.7340   26.6650 C.3     1  LIG1        0.1520
     17  C         -8.1460   -5.8370   25.4270 C.3     1  LIG1        0.1520
     18  C         -4.5260  -10.4000   29.1150 C.2     1  LIG1        0.2980
     19  O         -5.4640  -10.9790   29.6420 O.2     1  LIG1       -0.2590
     20  C         -3.1270  -10.8950   29.1770 C.ar    1  LIG1        0.0400
     21  C         -2.1110  -10.0600   29.6400 C.ar    1  LIG1        0.0200
     22  C         -0.7980  -10.5250   29.6980 C.ar    1  LIG1        0.0330
     23  C         -0.4990  -11.8250   29.2930 C.ar    1  LIG1        0.0750
     24  C         -1.5150  -12.6620   28.8290 C.ar    1  LIG1        0.0330
     25  C         -2.8290  -12.1970   28.7710 C.ar    1  LIG1        0.0200
     26  N          0.8180  -12.2920   29.3510 N.pl3   1  LIG1       -0.0660
     27  C          1.2100  -12.9520   30.4140 C.cat   1  LIG1        0.6920
     28  N          0.4610  -13.2590   31.5300 N.pl3   1  LIG1       -0.2330
     29  N          2.4970  -13.4270   30.5110 N.pl3   1  LIG1       -0.2330
     30  H         -0.4790  -12.9730   31.5850 H       1  LIG1        0.1740
     31  H          0.8680  -13.7630   32.2720 H       1  LIG1        0.1740
     32  H          3.1350  -13.2740   29.7770 H       1  LIG1        0.1740
     33  H          2.7790  -13.9220   31.3140 H       1  LIG1        0.1740
@<TRIPOS>BOND
     1    17    15    1
     2    15    16    1
     3    15    13   am
     4    14    13    2
     5    13    12    1
     6    12    11    1
     7     1     2    1
     8     1    18    1
     9     7     2   ar
    10     7     6   ar
    11    25    24   ar
    12    25    20   ar
    13    24    23   ar
    14     2     3   ar
    15    18    20    1
    16    18    19    2
    17    20    21   ar
    18    23    26    1
    19    23    22   ar
    20     6     5   ar
    21    26    27    2
    22    11     9    1
    23    21    22   ar
    24    32    29    1
    25    10     9    2
    26     3     4   ar
    27     9     8    1
    28     5     4   ar
    29     5     8    1
    30    27    29    1
    31    27    28    1
    32    29    33    1
    33    28    30    1
    34    28    31    1
@<TRIPOS>MOLECULE
./../dock_file/temp/cc6d6ec66a5504467592c92b48fea120/Camostat_Ligand_CID_2536:hmTMPRSS3:20230411234659/Camostat_Ligand_CID_2536:hmTMPRSS3_out_3.pdbqt
 33 34 0 0 0
SMALL
GASTEIGER

@<TRIPOS>ATOM
      1  O         -6.0200  -11.2210   20.5020 O.3     1  LIG1       -0.2750
      2  C         -5.7680  -11.2510   21.8390 C.ar    1  LIG1        0.0790
      3  C         -4.4970  -11.5910   22.3030 C.ar    1  LIG1        0.0380
      4  C         -4.2400  -11.6220   23.6730 C.ar    1  LIG1        0.0100
      5  C         -5.2540  -11.3130   24.5800 C.ar    1  LIG1       -0.0490
      6  C         -6.5250  -10.9730   24.1160 C.ar    1  LIG1        0.0100
      7  C         -6.7820  -10.9420   22.7460 C.ar    1  LIG1        0.0380
      8  C         -4.9760  -11.3460   26.0610 C.3     1  LIG1        0.1490
      9  C         -4.7050   -9.9780   26.6410 C.2     1  LIG1        0.2630
     10  O         -4.3040   -9.0080   26.0120 O.2     1  LIG1       -0.2650
     11  O         -4.9800   -9.9870   27.9880 O.3     1  LIG1       -0.3120
     12  C         -4.3920  -11.0290   28.7370 C.3     1  LIG1        0.2810
     13  C         -3.0900  -10.5490   29.3440 C.2     1  LIG1        0.2430
     14  O         -2.7030   -9.4050   29.0880 O.2     1  LIG1       -0.2710
     15  N         -2.4020  -11.4350   30.1730 N.am    1  LIG1       -0.3590
     16  C         -2.8350  -12.7890   30.5110 C.3     1  LIG1        0.1520
     17  C         -1.1480  -11.0150   30.7860 C.3     1  LIG1        0.1520
     18  C         -5.4500  -10.1340   19.8350 C.2     1  LIG1        0.2980
     19  O         -5.5210   -8.9650   20.1850 O.2     1  LIG1       -0.2590
     20  C         -4.7400  -10.5720   18.6060 C.ar    1  LIG1        0.0400
     21  C         -4.8720   -9.8410   17.4260 C.ar    1  LIG1        0.0200
     22  C         -4.2050  -10.2520   16.2720 C.ar    1  LIG1        0.0330
     23  C         -3.4050  -11.3950   16.2990 C.ar    1  LIG1        0.0750
     24  C         -3.2720  -12.1260   17.4790 C.ar    1  LIG1        0.0330
     25  C         -3.9400  -11.7150   18.6330 C.ar    1  LIG1        0.0200
     26  N         -2.7360  -11.8070   15.1410 N.pl3   1  LIG1       -0.0660
     27  C         -3.3640  -12.5790   14.2870 C.cat   1  LIG1        0.6920
     28  N         -4.6520  -13.0580   14.3860 N.pl3   1  LIG1       -0.2330
     29  N         -2.7420  -13.0070   13.1380 N.pl3   1  LIG1       -0.2330
     30  H         -5.2060  -12.8240   15.1650 H       1  LIG1        0.1740
     31  H         -5.0180  -13.6350   13.6760 H       1  LIG1        0.1740
     32  H         -1.8160  -12.7330   12.9490 H       1  LIG1        0.1740
     33  H         -3.2240  -13.5860   12.5040 H       1  LIG1        0.1740
@<TRIPOS>BOND
     1    33    29    1
     2    32    29    1
     3    29    27    1
     4    31    28    1
     5    27    28    1
     6    27    26    2
     7    28    30    1
     8    26    23    1
     9    22    23   ar
    10    22    21   ar
    11    23    24   ar
    12    21    20   ar
    13    24    25   ar
    14    20    25   ar
    15    20    18    1
    16    18    19    2
    17    18     1    1
    18     1     2    1
    19     2     3   ar
    20     2     7   ar
    21     3     4   ar
    22     7     6   ar
    23     4     5   ar
    24     6     5   ar
    25     5     8    1
    26    10     9    2
    27     8     9    1
    28     9    11    1
    29    11    12    1
    30    12    13    1
    31    14    13    2
    32    13    15   am
    33    15    16    1
    34    15    17    1
@<TRIPOS>MOLECULE
./../dock_file/temp/cc6d6ec66a5504467592c92b48fea120/Camostat_Ligand_CID_2536:hmTMPRSS3:20230411234659/Camostat_Ligand_CID_2536:hmTMPRSS3_out_3.pdbqt
 33 34 0 0 0
SMALL
GASTEIGER

@<TRIPOS>ATOM
      1  O        -12.1500    1.2990   20.8060 O.3     1  LIG1       -0.2750
      2  C        -10.9560    1.2250   20.1570 C.ar    1  LIG1        0.0790
      3  C         -9.7680    1.1530   20.8850 C.ar    1  LIG1        0.0380
      4  C         -8.5460    1.0770   20.2190 C.ar    1  LIG1        0.0100
      5  C         -8.5100    1.0720   18.8240 C.ar    1  LIG1       -0.0490
      6  C         -9.6980    1.1430   18.0960 C.ar    1  LIG1        0.0100
      7  C        -10.9210    1.2190   18.7630 C.ar    1  LIG1        0.0380
      8  C         -7.1890    0.9890   18.1040 C.3     1  LIG1        0.1490
      9  C         -6.9390    2.1700   17.1950 C.2     1  LIG1        0.2630
     10  O         -6.6590    2.1020   16.0070 O.2     1  LIG1       -0.2650
     11  O         -7.0780    3.3370   17.9090 O.3     1  LIG1       -0.3120
     12  C         -7.1260    4.5290   17.1540 C.3     1  LIG1        0.2810
     13  C         -5.9870    5.4380   17.5660 C.2     1  LIG1        0.2430
     14  O         -5.9640    5.8770   18.7190 O.2     1  LIG1       -0.2710
     15  N         -5.0130    5.7220   16.6070 N.am    1  LIG1       -0.3590
     16  C         -4.9970    5.2100   15.2390 C.3     1  LIG1        0.1520
     17  C         -3.8930    6.5860   16.9580 C.3     1  LIG1        0.1520
     18  C        -12.1130    0.8540   22.1300 C.2     1  LIG1        0.2980
     19  O        -12.2120   -0.3080   22.4940 O.2     1  LIG1       -0.2590
     20  C        -11.9500    1.9900   23.0730 C.ar    1  LIG1        0.0400
     21  C        -11.1780    1.8350   24.2240 C.ar    1  LIG1        0.0200
     22  C        -11.0250    2.9030   25.1090 C.ar    1  LIG1        0.0330
     23  C        -11.6440    4.1240   24.8430 C.ar    1  LIG1        0.0750
     24  C        -12.4160    4.2780   23.6920 C.ar    1  LIG1        0.0330
     25  C        -12.5700    3.2110   22.8070 C.ar    1  LIG1        0.0200
     26  N        -11.4910    5.1940   25.7310 N.pl3   1  LIG1       -0.0660
     27  C        -12.2100    5.2160   26.8280 C.cat   1  LIG1        0.6920
     28  N        -13.1370    4.2820   27.2370 N.pl3   1  LIG1       -0.2330
     29  N        -12.0880    6.2500   27.7260 N.pl3   1  LIG1       -0.2330
     30  H        -13.3180    3.4920   26.6800 H       1  LIG1        0.1740
     31  H        -13.6190    4.4080   28.0860 H       1  LIG1        0.1740
     32  H        -11.4570    6.9830   27.5500 H       1  LIG1        0.1740
     33  H        -12.6340    6.2550   28.5460 H       1  LIG1        0.1740
@<TRIPOS>BOND
     1    16    15    1
     2    10     9    2
     3    15    17    1
     4    15    13   am
     5    12    13    1
     6    12    11    1
     7     9    11    1
     8     9     8    1
     9    13    14    2
    10     6     7   ar
    11     6     5   ar
    12     8     5    1
    13     7     2   ar
    14     5     4   ar
    15     2     1    1
    16     2     3   ar
    17     4     3   ar
    18     1    18    1
    19    18    19    2
    20    18    20    1
    21    25    20   ar
    22    25    24   ar
    23    20    21   ar
    24    24    23   ar
    25    21    22   ar
    26    23    22   ar
    27    23    26    1
    28    26    27    2
    29    30    28    1
    30    27    28    1
    31    27    29    1
    32    28    31    1
    33    32    29    1
    34    29    33    1
@<TRIPOS>MOLECULE
./../dock_file/temp/cc6d6ec66a5504467592c92b48fea120/Camostat_Ligand_CID_2536:hmTMPRSS3:20230411234659/Camostat_Ligand_CID_2536:hmTMPRSS3_out_3.pdbqt
 33 34 0 0 0
SMALL
GASTEIGER

@<TRIPOS>ATOM
      1  O         -5.5820   -9.9720   28.9150 O.3     1  LIG1       -0.2750
      2  C         -5.6120   -8.6120   28.8870 C.ar    1  LIG1        0.0790
      3  C         -5.2470   -7.8820   30.0190 C.ar    1  LIG1        0.0380
      4  C         -5.2780   -6.4890   29.9900 C.ar    1  LIG1        0.0100
      5  C         -5.6710   -5.8230   28.8290 C.ar    1  LIG1       -0.0490
      6  C         -6.0350   -6.5520   27.6970 C.ar    1  LIG1        0.0100
      7  C         -6.0050   -7.9470   27.7260 C.ar    1  LIG1        0.0380
      8  C         -5.7040   -4.3170   28.7970 C.3     1  LIG1        0.1490
      9  C         -6.8990   -3.7390   29.5170 C.2     1  LIG1        0.2630
     10  O         -7.0480   -3.7050   30.7310 O.2     1  LIG1       -0.2650
     11  O         -7.7980   -3.2530   28.5980 O.3     1  LIG1       -0.3120
     12  C         -9.1310   -3.7000   28.7300 C.3     1  LIG1        0.2810
     13  C         -9.3910   -4.8240   27.7490 C.2     1  LIG1        0.2430
     14  O         -9.5070   -4.5510   26.5510 O.2     1  LIG1       -0.2710
     15  N         -9.4760   -6.1180   28.2630 N.am    1  LIG1       -0.3590
     16  C         -9.3290   -6.4820   29.6710 C.3     1  LIG1        0.1520
     17  C         -9.7160   -7.2340   27.3570 C.3     1  LIG1        0.1520
     18  C         -4.5160  -10.5380   28.2120 C.2     1  LIG1        0.2980
     19  O         -4.4570  -10.6790   27.0000 O.2     1  LIG1       -0.2590
     20  C         -3.4390  -10.9770   29.1350 C.ar    1  LIG1        0.0400
     21  C         -3.4360  -12.2790   29.6350 C.ar    1  LIG1        0.0200
     22  C         -2.4240  -12.6910   30.5010 C.ar    1  LIG1        0.0330
     23  C         -1.4150  -11.8020   30.8690 C.ar    1  LIG1        0.0750
     24  C         -1.4170  -10.4990   30.3690 C.ar    1  LIG1        0.0330
     25  C         -2.4290  -10.0870   29.5020 C.ar    1  LIG1        0.0200
     26  N         -0.4000  -12.2160   31.7380 N.pl3   1  LIG1       -0.0660
     27  C          0.7400  -12.6250   31.2330 C.cat   1  LIG1        0.6920
     28  N          1.0810  -12.7030   29.9000 N.pl3   1  LIG1       -0.2330
     29  N          1.7630  -13.0390   32.0530 N.pl3   1  LIG1       -0.2330
     30  H          0.4340  -12.4350   29.2090 H       1  LIG1        0.1740
     31  H          1.9730  -13.0300   29.6400 H       1  LIG1        0.1740
     32  H          1.6450  -13.0300   33.0290 H       1  LIG1        0.1740
     33  H          2.6140  -13.3440   31.6610 H       1  LIG1        0.1740
@<TRIPOS>BOND
     1    14    13    2
     2    19    18    2
     3    17    15    1
     4     6     7   ar
     5     6     5   ar
     6     7     2   ar
     7    13    15   am
     8    13    12    1
     9    18     1    1
    10    18    20    1
    11    15    16    1
    12    11    12    1
    13    11     9    1
    14     8     5    1
    15     8     9    1
    16     5     4   ar
    17     2     1    1
    18     2     3   ar
    19    20    25   ar
    20    20    21   ar
    21    30    28    1
    22    25    24   ar
    23     9    10    2
    24    21    22   ar
    25    31    28    1
    26    28    27    1
    27     4     3   ar
    28    24    23   ar
    29    22    23   ar
    30    23    26    1
    31    27    26    2
    32    27    29    1
    33    33    29    1
    34    29    32    1
@<TRIPOS>MOLECULE
./../dock_file/temp/cc6d6ec66a5504467592c92b48fea120/Camostat_Ligand_CID_2536:hmTMPRSS3:20230411234659/Camostat_Ligand_CID_2536:hmTMPRSS3_out_3.pdbqt
 33 34 0 0 0
SMALL
GASTEIGER

@<TRIPOS>ATOM
      1  O         -2.7720    7.9400   16.8160 O.3     1  LIG1       -0.2750
      2  C         -3.8190    7.0780   16.9290 C.ar    1  LIG1        0.0790
      3  C         -4.1290    6.2150   15.8780 C.ar    1  LIG1        0.0380
      4  C         -5.2020    5.3320   15.9940 C.ar    1  LIG1        0.0100
      5  C         -5.9640    5.3090   17.1620 C.ar    1  LIG1       -0.0490
      6  C         -5.6530    6.1720   18.2140 C.ar    1  LIG1        0.0100
      7  C         -4.5800    7.0560   18.0980 C.ar    1  LIG1        0.0380
      8  C         -7.1230    4.3550   17.2880 C.3     1  LIG1        0.1490
      9  C         -6.7170    3.0030   17.8240 C.2     1  LIG1        0.2630
     10  O         -6.3870    2.7680   18.9780 O.2     1  LIG1       -0.2650
     11  O         -6.7760    2.0720   16.8140 O.3     1  LIG1       -0.3120
     12  C         -8.0680    1.6900   16.3920 C.3     1  LIG1        0.2810
     13  C         -8.7060    0.8030   17.4410 C.2     1  LIG1        0.2430
     14  O         -8.1920   -0.2930   17.6830 O.2     1  LIG1       -0.2710
     15  N         -9.8450    1.2860   18.0860 N.am    1  LIG1       -0.3590
     16  C        -10.4730    2.5820   17.8370 C.3     1  LIG1        0.1520
     17  C        -10.4890    0.4720   19.1080 C.3     1  LIG1        0.1520
     18  C         -3.1270    9.2230   16.3920 C.2     1  LIG1        0.2980
     19  O         -3.9490    9.9490   16.9300 O.2     1  LIG1       -0.2590
     20  C         -2.3800    9.6080   15.1680 C.ar    1  LIG1        0.0400
     21  C         -2.5930   10.8560   14.5850 C.ar    1  LIG1        0.0200
     22  C         -1.8910   11.2180   13.4360 C.ar    1  LIG1        0.0330
     23  C         -0.9750   10.3320   12.8690 C.ar    1  LIG1        0.0750
     24  C         -0.7620    9.0830   13.4520 C.ar    1  LIG1        0.0330
     25  C         -1.4640    8.7210   14.6010 C.ar    1  LIG1        0.0200
     26  N         -0.2710   10.6950   11.7160 N.pl3   1  LIG1       -0.0660
     27  C         -0.8020   10.4440   10.5430 C.cat   1  LIG1        0.6920
     28  N         -2.0160    9.8430   10.2880 N.pl3   1  LIG1       -0.2330
     29  N         -0.1430   10.7850    9.3860 N.pl3   1  LIG1       -0.2330
     30  H         -2.5870    9.5500   11.0340 H       1  LIG1        0.1740
     31  H         -2.3110    9.7060    9.3580 H       1  LIG1        0.1740
     32  H          0.7370   11.2230    9.4320 H       1  LIG1        0.1740
     33  H         -0.5520   10.5920    8.5120 H       1  LIG1        0.1740
@<TRIPOS>BOND
     1    33    29    1
     2    31    28    1
     3    29    32    1
     4    29    27    1
     5    28    27    1
     6    28    30    1
     7    27    26    2
     8    26    23    1
     9    23    22   ar
    10    23    24   ar
    11    22    21   ar
    12    24    25   ar
    13    21    20   ar
    14    25    20   ar
    15    20    18    1
    16     3     4   ar
    17     3     2   ar
    18     4     5   ar
    19    12    11    1
    20    12    13    1
    21    18     1    1
    22    18    19    2
    23    11     9    1
    24     1     2    1
    25     2     7   ar
    26     5     8    1
    27     5     6   ar
    28     8     9    1
    29    13    14    2
    30    13    15   am
    31     9    10    2
    32    16    15    1
    33    15    17    1
    34     7     6   ar
@<TRIPOS>MOLECULE
./../dock_file/temp/cc6d6ec66a5504467592c92b48fea120/Camostat_Ligand_CID_2536:hmTMPRSS3:20230411234659/Camostat_Ligand_CID_2536:hmTMPRSS3_out_3.pdbqt
 33 34 0 0 0
SMALL
GASTEIGER

@<TRIPOS>ATOM
      1  O         -6.8400    2.7400   14.8180 O.3     1  LIG1       -0.2750
      2  C         -7.3750    2.0210   15.8420 C.ar    1  LIG1        0.0790
      3  C         -8.6190    1.4070   15.6890 C.ar    1  LIG1        0.0380
      4  C         -9.1660    0.6710   16.7390 C.ar    1  LIG1        0.0100
      5  C         -8.4710    0.5460   17.9420 C.ar    1  LIG1       -0.0490
      6  C         -7.2270    1.1600   18.0950 C.ar    1  LIG1        0.0100
      7  C         -6.6800    1.8970   17.0440 C.ar    1  LIG1        0.0380
      8  C         -9.0620   -0.2490   19.0760 C.3     1  LIG1        0.1490
      9  C        -10.5340    0.0230   19.2820 C.2     1  LIG1        0.2630
     10  O        -11.4470   -0.7020   18.9120 O.2     1  LIG1       -0.2650
     11  O        -10.6920    1.2130   19.9530 O.3     1  LIG1       -0.3120
     12  C        -11.9120    1.3840   20.6420 C.3     1  LIG1        0.2810
     13  C        -11.6340    1.7630   22.0820 C.2     1  LIG1        0.2430
     14  O        -11.0580    0.9500   22.8090 O.2     1  LIG1       -0.2710
     15  N        -12.0440    3.0290   22.5030 N.am    1  LIG1       -0.3590
     16  C        -12.7150    4.0230   21.6690 C.3     1  LIG1        0.1520
     17  C        -11.7910    3.4420   23.8770 C.3     1  LIG1        0.1520
     18  C         -7.1730    4.0970   14.8330 C.2     1  LIG1        0.2980
     19  O         -8.2880    4.5590   14.6460 O.2     1  LIG1       -0.2590
     20  C         -5.9780    4.9390   15.0930 C.ar    1  LIG1        0.0400
     21  C         -5.2390    5.4500   14.0270 C.ar    1  LIG1        0.0200
     22  C         -4.1160    6.2410   14.2720 C.ar    1  LIG1        0.0330
     23  C         -3.7320    6.5200   15.5830 C.ar    1  LIG1        0.0750
     24  C         -4.4710    6.0080   16.6500 C.ar    1  LIG1        0.0330
     25  C         -5.5930    5.2170   16.4060 C.ar    1  LIG1        0.0200
     26  N         -2.6060    7.3130   15.8290 N.pl3   1  LIG1       -0.0660
     27  C         -2.7520    8.6140   15.9070 C.cat   1  LIG1        0.6920
     28  N         -3.9200    9.3320   15.7730 N.pl3   1  LIG1       -0.2330
     29  N         -1.6710    9.4290   16.1470 N.pl3   1  LIG1       -0.2330
     30  H         -4.7680    8.8650   15.5970 H       1  LIG1        0.1740
     31  H         -3.9060   10.3140   15.8510 H       1  LIG1        0.1740
     32  H         -0.7750    9.0370   16.2630 H       1  LIG1        0.1740
     33  H         -1.7930   10.4040   16.2040 H       1  LIG1        0.1740
@<TRIPOS>BOND
     1    21    22   ar
     2    21    20   ar
     3    22    23   ar
     4    19    18    2
     5     1    18    1
     6     1     2    1
     7    18    20    1
     8    20    25   ar
     9    23    26    1
    10    23    24   ar
    11    30    28    1
    12     3     2   ar
    13     3     4   ar
    14    28    31    1
    15    28    27    1
    16    26    27    2
    17     2     7   ar
    18    27    29    1
    19    29    33    1
    20    29    32    1
    21    25    24   ar
    22     4     5   ar
    23     7     6   ar
    24     5     6   ar
    25     5     8    1
    26    10     9    2
    27     8     9    1
    28     9    11    1
    29    11    12    1
    30    12    13    1
    31    16    15    1
    32    13    15   am
    33    13    14    2
    34    15    17    1
