@<TRIPOS>MOLECULE
./../dock_file/temp/cc6d6ec66a5504467592c92b48fea120/Camostat_Ligand_CID_2536:hmTMPRSS3:20230411234659/Camostat_Ligand_CID_2536:hmTMPRSS3_out_5.pdbqt
 33 34 0 0 0
SMALL
GASTEIGER

@<TRIPOS>ATOM
      1  O         11.6010   -9.2030   33.0830 O.3     1  LIG1       -0.2750
      2  C         12.4470   -8.9820   32.0400 C.ar    1  LIG1        0.0790
      3  C         13.7430   -9.4990   32.0710 C.ar    1  LIG1        0.0380
      4  C         14.6100   -9.2720   31.0030 C.ar    1  LIG1        0.0100
      5  C         14.1820   -8.5290   29.9020 C.ar    1  LIG1       -0.0490
      6  C         12.8860   -8.0120   29.8710 C.ar    1  LIG1        0.0100
      7  C         12.0190   -8.2390   30.9400 C.ar    1  LIG1        0.0380
      8  C         15.1180   -8.2850   28.7470 C.3     1  LIG1        0.1490
      9  C         15.3520   -6.8160   28.4800 C.2     1  LIG1        0.2630
     10  O         15.6900   -5.9890   29.3150 O.2     1  LIG1       -0.2650
     11  O         15.1290   -6.5500   27.1500 O.3     1  LIG1       -0.3120
     12  C         16.2130   -6.7830   26.2760 C.3     1  LIG1        0.2810
     13  C         15.7190   -6.8000   24.8450 C.2     1  LIG1        0.2430
     14  O         14.7590   -6.0870   24.5400 O.2     1  LIG1       -0.2710
     15  N         16.3920   -7.6240   23.9420 N.am    1  LIG1       -0.3590
     16  C         17.5400   -8.4700   24.2610 C.3     1  LIG1        0.1520
     17  C         15.9580   -7.6680   22.5510 C.3     1  LIG1        0.1520
     18  C         11.1150   -8.0400   33.6840 C.2     1  LIG1        0.2980
     19  O         10.0100   -7.5510   33.5020 O.2     1  LIG1       -0.2590
     20  C         12.1300   -7.4380   34.5860 C.ar    1  LIG1        0.0400
     21  C         12.8450   -8.2470   35.4690 C.ar    1  LIG1        0.0200
     22  C         13.7990   -7.6820   36.3150 C.ar    1  LIG1        0.0330
     23  C         14.0380   -6.3090   36.2790 C.ar    1  LIG1        0.0750
     24  C         13.3230   -5.4990   35.3960 C.ar    1  LIG1        0.0330
     25  C         12.3690   -6.0640   34.5500 C.ar    1  LIG1        0.0200
     26  N         14.9950   -5.7420   37.1280 N.pl3   1  LIG1       -0.0660
     27  C         16.2180   -5.5760   36.6830 C.cat   1  LIG1        0.6920
     28  N         16.7030   -5.9010   35.4350 N.pl3   1  LIG1       -0.2330
     29  N         17.1880   -5.0230   37.4850 N.pl3   1  LIG1       -0.2330
     30  H         16.1070   -6.3060   34.7650 H       1  LIG1        0.1740
     31  H         17.6480   -5.7290   35.2140 H       1  LIG1        0.1740
     32  H         16.9680   -4.7460   38.4040 H       1  LIG1        0.1740
     33  H         18.1020   -4.9030   37.1400 H       1  LIG1        0.1740
@<TRIPOS>BOND
     1    17    15    1
     2    15    16    1
     3    15    13   am
     4    14    13    2
     5    13    12    1
     6    12    11    1
     7    11     9    1
     8     9     8    1
     9     9    10    2
    10     8     5    1
    11     6     5   ar
    12     6     7   ar
    13     5     4   ar
    14     7     2   ar
    15     4     3   ar
    16     2     3   ar
    17     2     1    1
    18     1    18    1
    19    19    18    2
    20    18    20    1
    21    25    20   ar
    22    25    24   ar
    23    20    21   ar
    24    30    28    1
    25    31    28    1
    26    24    23   ar
    27    28    27    1
    28    21    22   ar
    29    23    22   ar
    30    23    26    1
    31    27    26    2
    32    27    29    1
    33    33    29    1
    34    29    32    1
@<TRIPOS>MOLECULE
./../dock_file/temp/cc6d6ec66a5504467592c92b48fea120/Camostat_Ligand_CID_2536:hmTMPRSS3:20230411234659/Camostat_Ligand_CID_2536:hmTMPRSS3_out_5.pdbqt
 33 34 0 0 0
SMALL
GASTEIGER

@<TRIPOS>ATOM
      1  O         11.4840   -9.2410   32.5230 O.3     1  LIG1       -0.2750
      2  C         12.4270   -8.9950   31.5740 C.ar    1  LIG1        0.0790
      3  C         13.6680   -9.6290   31.6420 C.ar    1  LIG1        0.0380
      4  C         14.6340   -9.3770   30.6690 C.ar    1  LIG1        0.0100
      5  C         14.3610   -8.4910   29.6260 C.ar    1  LIG1       -0.0490
      6  C         13.1200   -7.8570   29.5580 C.ar    1  LIG1        0.0100
      7  C         12.1530   -8.1100   30.5320 C.ar    1  LIG1        0.0380
      8  C         15.4050   -8.2180   28.5750 C.3     1  LIG1        0.1490
      9  C         15.5240   -6.7520   28.2300 C.2     1  LIG1        0.2630
     10  O         15.8470   -5.8650   29.0080 O.2     1  LIG1       -0.2650
     11  O         15.2150   -6.5660   26.9030 O.3     1  LIG1       -0.3120
     12  C         16.2930   -6.6490   25.9940 C.3     1  LIG1        0.2810
     13  C         15.7640   -6.9290   24.6030 C.2     1  LIG1        0.2430
     14  O         14.7040   -6.4030   24.2540 O.2     1  LIG1       -0.2710
     15  N         16.5220   -7.7680   23.7850 N.am    1  LIG1       -0.3590
     16  C         17.7870   -8.3970   24.1570 C.3     1  LIG1        0.1520
     17  C         16.0580   -8.0610   22.4340 C.3     1  LIG1        0.1520
     18  C         11.0330   -8.1020   33.1940 C.2     1  LIG1        0.2980
     19  O         10.1090   -7.3850   32.8400 O.2     1  LIG1       -0.2590
     20  C         11.8390   -7.8450   34.4140 C.ar    1  LIG1        0.0400
     21  C         11.7470   -6.6150   35.0650 C.ar    1  LIG1        0.0200
     22  C         12.5050   -6.3740   36.2110 C.ar    1  LIG1        0.0330
     23  C         13.3550   -7.3630   36.7070 C.ar    1  LIG1        0.0750
     24  C         13.4470   -8.5930   36.0560 C.ar    1  LIG1        0.0330
     25  C         12.6900   -8.8340   34.9100 C.ar    1  LIG1        0.0200
     26  N         14.1140   -7.1210   37.8560 N.pl3   1  LIG1       -0.0660
     27  C         13.5950   -7.3960   39.0290 C.cat   1  LIG1        0.6920
     28  N         12.3440   -7.9150   39.2860 N.pl3   1  LIG1       -0.2330
     29  N         14.3080   -7.1730   40.1830 N.pl3   1  LIG1       -0.2330
     30  H         11.7330   -8.1190   38.5430 H       1  LIG1        0.1740
     31  H         12.0620   -8.0800   40.2160 H       1  LIG1        0.1740
     32  H         15.2190   -6.8040   40.1350 H       1  LIG1        0.1740
     33  H         13.9070   -7.3840   41.0570 H       1  LIG1        0.1740
@<TRIPOS>BOND
     1    17    15    1
     2    15    16    1
     3    15    13   am
     4    14    13    2
     5    13    12    1
     6    12    11    1
     7    11     9    1
     8     9     8    1
     9     9    10    2
    10     8     5    1
    11     6     5   ar
    12     6     7   ar
    13     5     4   ar
    14     7     2   ar
    15     4     3   ar
    16     2     3   ar
    17     2     1    1
    18     1    18    1
    19    19    18    2
    20    18    20    1
    21    20    25   ar
    22    20    21   ar
    23    25    24   ar
    24    21    22   ar
    25    24    23   ar
    26    22    23   ar
    27    23    26    1
    28    26    27    2
    29    30    28    1
    30    27    28    1
    31    27    29    1
    32    28    31    1
    33    32    29    1
    34    29    33    1
@<TRIPOS>MOLECULE
./../dock_file/temp/cc6d6ec66a5504467592c92b48fea120/Camostat_Ligand_CID_2536:hmTMPRSS3:20230411234659/Camostat_Ligand_CID_2536:hmTMPRSS3_out_5.pdbqt
 33 34 0 0 0
SMALL
GASTEIGER

@<TRIPOS>ATOM
      1  O         12.0690   -8.2260   33.6460 O.3     1  LIG1       -0.2750
      2  C         12.8020   -8.4280   32.5170 C.ar    1  LIG1        0.0790
      3  C         13.7130   -9.4830   32.4550 C.ar    1  LIG1        0.0380
      4  C         14.4640   -9.6890   31.2980 C.ar    1  LIG1        0.0100
      5  C         14.3030   -8.8420   30.2020 C.ar    1  LIG1       -0.0490
      6  C         13.3920   -7.7870   30.2630 C.ar    1  LIG1        0.0100
      7  C         12.6410   -7.5810   31.4210 C.ar    1  LIG1        0.0380
      8  C         15.1140   -9.0650   28.9510 C.3     1  LIG1        0.1490
      9  C         15.9210   -7.8530   28.5490 C.2     1  LIG1        0.2630
     10  O         16.8440   -7.3710   29.1900 O.2     1  LIG1       -0.2650
     11  O         15.4580   -7.3730   27.3460 O.3     1  LIG1       -0.3120
     12  C         16.4400   -6.9510   26.4230 C.3     1  LIG1        0.2810
     13  C         15.8300   -6.8520   25.0410 C.2     1  LIG1        0.2430
     14  O         14.8390   -6.1350   24.8790 O.2     1  LIG1       -0.2710
     15  N         16.4380   -7.5800   24.0170 N.am    1  LIG1       -0.3590
     16  C         17.6200   -8.4270   24.1660 C.3     1  LIG1        0.1520
     17  C         15.8930   -7.5110   22.6680 C.3     1  LIG1        0.1520
     18  C         12.8300   -8.1170   34.8120 C.2     1  LIG1        0.2980
     19  O         12.8880   -8.9480   35.7060 O.2     1  LIG1       -0.2590
     20  C         13.5680   -6.8290   34.8520 C.ar    1  LIG1        0.0400
     21  C         14.9620   -6.8230   34.8180 C.ar    1  LIG1        0.0200
     22  C         15.6550   -5.6130   34.8540 C.ar    1  LIG1        0.0330
     23  C         14.9550   -4.4090   34.9250 C.ar    1  LIG1        0.0750
     24  C         13.5600   -4.4150   34.9590 C.ar    1  LIG1        0.0330
     25  C         12.8670   -5.6250   34.9220 C.ar    1  LIG1        0.0200
     26  N         15.6510   -3.1960   34.9610 N.pl3   1  LIG1       -0.0660
     27  C         15.8790   -2.5630   33.8360 C.cat   1  LIG1        0.6920
     28  N         15.5080   -2.9540   32.5680 N.pl3   1  LIG1       -0.2330
     29  N         16.5590   -1.3680   33.8290 N.pl3   1  LIG1       -0.2330
     30  H         15.0140   -3.7940   32.4370 H       1  LIG1        0.1740
     31  H         15.7380   -2.3910   31.7930 H       1  LIG1        0.1740
     32  H         16.8800   -0.9780   34.6740 H       1  LIG1        0.1740
     33  H         16.7240   -0.9010   32.9770 H       1  LIG1        0.1740
@<TRIPOS>BOND
     1    17    15    1
     2    15    16    1
     3    15    13   am
     4    14    13    2
     5    13    12    1
     6    12    11    1
     7    11     9    1
     8     9     8    1
     9     9    10    2
    10     8     5    1
    11     5     6   ar
    12     5     4   ar
    13     6     7   ar
    14     4     3   ar
    15     7     2   ar
    16    31    28    1
    17    30    28    1
    18     3     2   ar
    19     2     1    1
    20    28    27    1
    21    33    29    1
    22     1    18    1
    23    29    27    1
    24    29    32    1
    25    27    26    2
    26    18    20    1
    27    18    19    2
    28    21    20   ar
    29    21    22   ar
    30    20    25   ar
    31    22    23   ar
    32    25    24   ar
    33    23    24   ar
    34    23    26    1
@<TRIPOS>MOLECULE
./../dock_file/temp/cc6d6ec66a5504467592c92b48fea120/Camostat_Ligand_CID_2536:hmTMPRSS3:20230411234659/Camostat_Ligand_CID_2536:hmTMPRSS3_out_5.pdbqt
 33 34 0 0 0
SMALL
GASTEIGER

@<TRIPOS>ATOM
      1  O         15.2400   -8.2650   29.0010 O.3     1  LIG1       -0.2750
      2  C         14.1620   -8.4770   29.8050 C.ar    1  LIG1        0.0790
      3  C         14.2280   -9.4260   30.8250 C.ar    1  LIG1        0.0380
      4  C         13.1230   -9.6430   31.6470 C.ar    1  LIG1        0.0100
      5  C         11.9530   -8.9100   31.4520 C.ar    1  LIG1       -0.0490
      6  C         11.8870   -7.9610   30.4320 C.ar    1  LIG1        0.0100
      7  C         12.9920   -7.7440   29.6090 C.ar    1  LIG1        0.0380
      8  C         10.7590   -9.1440   32.3410 C.3     1  LIG1        0.1490
      9  C         10.0540   -7.8660   32.7300 C.2     1  LIG1        0.2630
     10  O          9.2880   -7.2330   32.0170 O.2     1  LIG1       -0.2650
     11  O         10.4060   -7.5210   34.0140 O.3     1  LIG1       -0.3120
     12  C         11.7860   -7.5340   34.3080 C.3     1  LIG1        0.2810
     13  C         12.2100   -6.1760   34.8250 C.2     1  LIG1        0.2430
     14  O         11.4750   -5.5880   35.6230 O.2     1  LIG1       -0.2710
     15  N         13.4270   -5.6660   34.3700 N.am    1  LIG1       -0.3590
     16  C         14.3320   -6.3380   33.4390 C.3     1  LIG1        0.1520
     17  C         13.8820   -4.3660   34.8460 C.3     1  LIG1        0.1520
     18  C         16.3980   -7.8800   29.6820 C.2     1  LIG1        0.2980
     19  O         16.9930   -8.5510   30.5110 O.2     1  LIG1       -0.2590
     20  C         16.8250   -6.5150   29.2830 C.ar    1  LIG1        0.0400
     21  C         17.4300   -6.3090   28.0430 C.ar    1  LIG1        0.0200
     22  C         17.8310   -5.0270   27.6680 C.ar    1  LIG1        0.0330
     23  C         17.6280   -3.9510   28.5320 C.ar    1  LIG1        0.0750
     24  C         17.0240   -4.1570   29.7720 C.ar    1  LIG1        0.0330
     25  C         16.6230   -5.4390   30.1480 C.ar    1  LIG1        0.0200
     26  N         18.0310   -2.6650   28.1550 N.pl3   1  LIG1       -0.0660
     27  C         19.2130   -2.2370   28.5280 C.cat   1  LIG1        0.6920
     28  N         20.1510   -2.9170   29.2740 N.pl3   1  LIG1       -0.2330
     29  N         19.6470   -0.9790   28.1780 N.pl3   1  LIG1       -0.2330
     30  H         19.9610   -3.8300   29.5880 H       1  LIG1        0.1740
     31  H         21.0100   -2.4890   29.4940 H       1  LIG1        0.1740
     32  H         19.0680   -0.3910   27.6420 H       1  LIG1        0.1740
     33  H         20.5370   -0.6690   28.4630 H       1  LIG1        0.1740
@<TRIPOS>BOND
     1    32    29    1
     2    22    21   ar
     3    22    23   ar
     4    21    20   ar
     5    26    27    2
     6    26    23    1
     7    29    33    1
     8    29    27    1
     9    27    28    1
    10    23    24   ar
    11     1    18    1
    12     1     2    1
    13    28    31    1
    14    28    30    1
    15    20    18    1
    16    20    25   ar
    17     7     2   ar
    18     7     6   ar
    19    18    19    2
    20    24    25   ar
    21     2     3   ar
    22     6     5   ar
    23     3     4   ar
    24     5     4   ar
    25     5     8    1
    26    10     9    2
    27     8     9    1
    28     9    11    1
    29    16    15    1
    30    11    12    1
    31    12    13    1
    32    15    13   am
    33    15    17    1
    34    13    14    2
@<TRIPOS>MOLECULE
./../dock_file/temp/cc6d6ec66a5504467592c92b48fea120/Camostat_Ligand_CID_2536:hmTMPRSS3:20230411234659/Camostat_Ligand_CID_2536:hmTMPRSS3_out_5.pdbqt
 33 34 0 0 0
SMALL
GASTEIGER

@<TRIPOS>ATOM
      1  O         18.4650   -7.9510   28.4520 O.3     1  LIG1       -0.2750
      2  C         17.3590   -8.3350   29.1460 C.ar    1  LIG1        0.0790
      3  C         16.4990   -9.2960   28.6130 C.ar    1  LIG1        0.0380
      4  C         15.3660   -9.6890   29.3250 C.ar    1  LIG1        0.0100
      5  C         15.0920   -9.1220   30.5700 C.ar    1  LIG1       -0.0490
      6  C         15.9520   -8.1600   31.1020 C.ar    1  LIG1        0.0100
      7  C         17.0850   -7.7670   30.3900 C.ar    1  LIG1        0.0380
      8  C         13.8680   -9.5460   31.3380 C.3     1  LIG1        0.1490
      9  C         12.6720   -8.6600   31.0770 C.2     1  LIG1        0.2630
     10  O         12.6630   -7.6780   30.3480 O.2     1  LIG1       -0.2650
     11  O         11.5900   -9.1290   31.7840 O.3     1  LIG1       -0.3120
     12  C         11.7470   -9.2070   33.1850 C.3     1  LIG1        0.2810
     13  C         11.4490   -7.8590   33.8080 C.2     1  LIG1        0.2430
     14  O         10.2970   -7.4200   33.7490 O.2     1  LIG1       -0.2710
     15  N         12.5060   -7.1890   34.4250 N.am    1  LIG1       -0.3590
     16  C         13.8780   -7.6820   34.5270 C.3     1  LIG1        0.1520
     17  C         12.2660   -5.8920   35.0450 C.3     1  LIG1        0.1520
     18  C         18.2980   -6.7830   27.7050 C.2     1  LIG1        0.2980
     19  O         18.5860   -5.6540   28.0730 O.2     1  LIG1       -0.2590
     20  C         17.6980   -7.0760   26.3790 C.ar    1  LIG1        0.0400
     21  C         16.4260   -6.5980   26.0680 C.ar    1  LIG1        0.0200
     22  C         15.8620   -6.8730   24.8220 C.ar    1  LIG1        0.0330
     23  C         16.5710   -7.6280   23.8870 C.ar    1  LIG1        0.0750
     24  C         17.8440   -8.1070   24.1980 C.ar    1  LIG1        0.0330
     25  C         18.4070   -7.8310   25.4440 C.ar    1  LIG1        0.0200
     26  N         16.0060   -7.9040   22.6370 N.pl3   1  LIG1       -0.0660
     27  C         16.4450   -8.9360   21.9570 C.cat   1  LIG1        0.6920
     28  N         17.4330   -9.8210   22.3290 N.pl3   1  LIG1       -0.2330
     29  N         15.9160   -9.2420   20.7250 N.pl3   1  LIG1       -0.2330
     30  H         17.8930   -9.7110   23.1920 H       1  LIG1        0.1740
     31  H         17.6800  -10.5630   21.7300 H       1  LIG1        0.1740
     32  H         15.2000   -8.6850   20.3450 H       1  LIG1        0.1740
     33  H         16.2540  -10.0190   20.2250 H       1  LIG1        0.1740
@<TRIPOS>BOND
     1    33    29    1
     2    32    29    1
     3    29    27    1
     4    31    28    1
     5    27    28    1
     6    27    26    2
     7    28    30    1
     8    26    23    1
     9    23    24   ar
    10    23    22   ar
    11    24    25   ar
    12    22    21   ar
    13    25    20   ar
    14    21    20   ar
    15    20    18    1
    16    18    19    2
    17    18     1    1
    18     1     2    1
    19     3     2   ar
    20     3     4   ar
    21     2     7   ar
    22     4     5   ar
    23    10     9    2
    24     7     6   ar
    25     5     6   ar
    26     5     8    1
    27     9     8    1
    28     9    11    1
    29    11    12    1
    30    12    13    1
    31    14    13    2
    32    13    15   am
    33    15    16    1
    34    15    17    1
@<TRIPOS>MOLECULE
./../dock_file/temp/cc6d6ec66a5504467592c92b48fea120/Camostat_Ligand_CID_2536:hmTMPRSS3:20230411234659/Camostat_Ligand_CID_2536:hmTMPRSS3_out_5.pdbqt
 33 34 0 0 0
SMALL
GASTEIGER

@<TRIPOS>ATOM
      1  O         18.0020   -4.5310   29.2510 O.3     1  LIG1       -0.2750
      2  C         17.0630   -5.5130   29.3370 C.ar    1  LIG1        0.0790
      3  C         16.7360   -6.0600   30.5780 C.ar    1  LIG1        0.0380
      4  C         15.7750   -7.0660   30.6660 C.ar    1  LIG1        0.0100
      5  C         15.1390   -7.5250   29.5120 C.ar    1  LIG1       -0.0490
      6  C         15.4660   -6.9780   28.2710 C.ar    1  LIG1        0.0100
      7  C         16.4280   -5.9720   28.1840 C.ar    1  LIG1        0.0380
      8  C         14.1000   -8.6120   29.6060 C.3     1  LIG1        0.1490
      9  C         12.7170   -8.0810   29.9030 C.2     1  LIG1        0.2630
     10  O         12.0360   -7.4110   29.1390 O.2     1  LIG1       -0.2650
     11  O         12.3380   -8.4680   31.1660 O.3     1  LIG1       -0.3120
     12  C         12.3020   -7.4520   32.1460 C.3     1  LIG1        0.2810
     13  C         12.2360   -8.0760   33.5250 C.2     1  LIG1        0.2430
     14  O         11.8120   -9.2290   33.6340 O.2     1  LIG1       -0.2710
     15  N         12.6730   -7.3030   34.6010 N.am    1  LIG1       -0.3590
     16  C         13.1950   -5.9410   34.5090 C.3     1  LIG1        0.1520
     17  C         12.6370   -7.8620   35.9460 C.3     1  LIG1        0.1520
     18  C         17.4780   -3.2510   29.0540 C.2     1  LIG1        0.2980
     19  O         17.3360   -2.6980   27.9730 O.2     1  LIG1       -0.2590
     20  C         17.1160   -2.6140   30.3460 C.ar    1  LIG1        0.0400
     21  C         17.9690   -2.7310   31.4430 C.ar    1  LIG1        0.0200
     22  C         17.6300   -2.1320   32.6560 C.ar    1  LIG1        0.0330
     23  C         16.4380   -1.4190   32.7730 C.ar    1  LIG1        0.0750
     24  C         15.5840   -1.3020   31.6760 C.ar    1  LIG1        0.0330
     25  C         15.9230   -1.9010   30.4620 C.ar    1  LIG1        0.0200
     26  N         16.0980   -0.8190   33.9900 N.pl3   1  LIG1       -0.0660
     27  C         15.4210   -1.5140   34.8730 C.cat   1  LIG1        0.6920
     28  N         14.9820   -2.8150   34.7510 N.pl3   1  LIG1       -0.2330
     29  N         15.0670   -0.9620   36.0810 N.pl3   1  LIG1       -0.2330
     30  H         15.1710   -3.3240   33.9310 H       1  LIG1        0.1740
     31  H         14.4780   -3.2350   35.4860 H       1  LIG1        0.1740
     32  H         15.3220   -0.0350   36.2920 H       1  LIG1        0.1740
     33  H         14.5590   -1.4950   36.7350 H       1  LIG1        0.1740
@<TRIPOS>BOND
     1    19    18    2
     2     7     6   ar
     3     7     2   ar
     4     6     5   ar
     5    18     1    1
     6    18    20    1
     7    10     9    2
     8     1     2    1
     9     2     3   ar
    10     5     8    1
    11     5     4   ar
    12     8     9    1
    13     9    11    1
    14    20    25   ar
    15    20    21   ar
    16    25    24   ar
    17     3     4   ar
    18    11    12    1
    19    21    22   ar
    20    24    23   ar
    21    12    13    1
    22    22    23   ar
    23    23    26    1
    24    13    14    2
    25    13    15   am
    26    30    28    1
    27    26    27    2
    28    16    15    1
    29    15    17    1
    30    28    27    1
    31    28    31    1
    32    27    29    1
    33    29    32    1
    34    29    33    1
@<TRIPOS>MOLECULE
./../dock_file/temp/cc6d6ec66a5504467592c92b48fea120/Camostat_Ligand_CID_2536:hmTMPRSS3:20230411234659/Camostat_Ligand_CID_2536:hmTMPRSS3_out_5.pdbqt
 33 34 0 0 0
SMALL
GASTEIGER

@<TRIPOS>ATOM
      1  O         15.2840   -8.1270   28.8850 O.3     1  LIG1       -0.2750
      2  C         14.2480   -8.4500   29.7070 C.ar    1  LIG1        0.0790
      3  C         14.4120   -9.4340   30.6820 C.ar    1  LIG1        0.0380
      4  C         13.3510   -9.7650   31.5240 C.ar    1  LIG1        0.0100
      5  C         12.1260   -9.1110   31.3930 C.ar    1  LIG1       -0.0490
      6  C         11.9620   -8.1260   30.4180 C.ar    1  LIG1        0.0100
      7  C         13.0240   -7.7960   29.5750 C.ar    1  LIG1        0.0380
      8  C         10.9800   -9.4680   32.3030 C.3     1  LIG1        0.1490
      9  C         10.5950   -8.3430   33.2350 C.2     1  LIG1        0.2630
     10  O          9.5430   -7.7200   33.1980 O.2     1  LIG1       -0.2650
     11  O         11.6110   -8.1250   34.1360 O.3     1  LIG1       -0.3120
     12  C         11.8870   -6.7770   34.4520 C.3     1  LIG1        0.2810
     13  C         13.3750   -6.5210   34.3330 C.2     1  LIG1        0.2430
     14  O         13.8540   -6.3120   33.2150 O.2     1  LIG1       -0.2710
     15  N         14.1240   -6.5280   35.5100 N.am    1  LIG1       -0.3590
     16  C         13.5920   -6.7570   36.8510 C.3     1  LIG1        0.1520
     17  C         15.5590   -6.2780   35.4470 C.3     1  LIG1        0.1520
     18  C         16.5300   -8.0930   29.5160 C.2     1  LIG1        0.2980
     19  O         17.3700   -8.9780   29.4810 O.2     1  LIG1       -0.2590
     20  C         16.7140   -6.8260   30.2680 C.ar    1  LIG1        0.0400
     21  C         16.5700   -5.6010   29.6170 C.ar    1  LIG1        0.0200
     22  C         16.7430   -4.4110   30.3250 C.ar    1  LIG1        0.0330
     23  C         17.0600   -4.4460   31.6820 C.ar    1  LIG1        0.0750
     24  C         17.2040   -5.6710   32.3340 C.ar    1  LIG1        0.0330
     25  C         17.0310   -6.8610   31.6270 C.ar    1  LIG1        0.0200
     26  N         17.2330   -3.2520   32.3910 N.pl3   1  LIG1       -0.0660
     27  C         16.2380   -2.7930   33.1120 C.cat   1  LIG1        0.6920
     28  N         14.9910   -3.3570   33.2670 N.pl3   1  LIG1       -0.2330
     29  N         16.3680   -1.6240   33.8230 N.pl3   1  LIG1       -0.2330
     30  H         14.7700   -4.1980   32.8080 H       1  LIG1        0.1740
     31  H         14.3200   -2.9160   33.8380 H       1  LIG1        0.1740
     32  H         17.2140   -1.1220   33.7970 H       1  LIG1        0.1740
     33  H         15.6140   -1.2890   34.3610 H       1  LIG1        0.1740
@<TRIPOS>BOND
     1     1    18    1
     2     1     2    1
     3    19    18    2
     4    18    20    1
     5     7     2   ar
     6     7     6   ar
     7    21    20   ar
     8    21    22   ar
     9     2     3   ar
    10    20    25   ar
    11    22    23   ar
    12     6     5   ar
    13     3     4   ar
    14     5     4   ar
    15     5     8    1
    16    25    24   ar
    17    23    24   ar
    18    23    26    1
    19     8     9    1
    20    26    27    2
    21    30    28    1
    22    27    28    1
    23    27    29    1
    24    10     9    2
    25    14    13    2
    26     9    11    1
    27    28    31    1
    28    32    29    1
    29    29    33    1
    30    11    12    1
    31    13    12    1
    32    13    15   am
    33    17    15    1
    34    15    16    1
@<TRIPOS>MOLECULE
./../dock_file/temp/cc6d6ec66a5504467592c92b48fea120/Camostat_Ligand_CID_2536:hmTMPRSS3:20230411234659/Camostat_Ligand_CID_2536:hmTMPRSS3_out_5.pdbqt
 33 34 0 0 0
SMALL
GASTEIGER

@<TRIPOS>ATOM
      1  O         25.4870    6.8280   25.7940 O.3     1  LIG1       -0.2750
      2  C         25.0270    5.5960   26.1420 C.ar    1  LIG1        0.0790
      3  C         25.9050    4.6420   26.6580 C.ar    1  LIG1        0.0380
      4  C         25.4330    3.3800   27.0150 C.ar    1  LIG1        0.0100
      5  C         24.0820    3.0700   26.8580 C.ar    1  LIG1       -0.0490
      6  C         23.2030    4.0240   26.3430 C.ar    1  LIG1        0.0100
      7  C         23.6760    5.2870   25.9850 C.ar    1  LIG1        0.0380
      8  C         23.5710    1.7060   27.2440 C.3     1  LIG1        0.1490
      9  C         22.3330    1.3020   26.4780 C.2     1  LIG1        0.2630
     10  O         22.3120    0.9140   25.3190 O.2     1  LIG1       -0.2650
     11  O         21.2290    1.4370   27.2860 O.3     1  LIG1       -0.3120
     12  C         21.3270    0.8710   28.5760 C.3     1  LIG1        0.2810
     13  C         21.0010   -0.6060   28.5090 C.2     1  LIG1        0.2430
     14  O         20.0790   -0.9780   27.7780 O.2     1  LIG1       -0.2710
     15  N         21.7770   -1.4710   29.2820 N.am    1  LIG1       -0.3590
     16  C         22.8840   -1.0710   30.1470 C.3     1  LIG1        0.1520
     17  C         21.5070   -2.9030   29.2440 C.3     1  LIG1        0.1520
     18  C         25.1140    7.8500   26.6700 C.2     1  LIG1        0.2980
     19  O         25.3190    7.8670   27.8740 O.2     1  LIG1       -0.2590
     20  C         24.4040    8.9390   25.9510 C.ar    1  LIG1        0.0400
     21  C         23.0100    8.9490   25.9020 C.ar    1  LIG1        0.0200
     22  C         22.3430    9.9710   25.2270 C.ar    1  LIG1        0.0330
     23  C         23.0700   10.9840   24.6010 C.ar    1  LIG1        0.0750
     24  C         24.4640   10.9740   24.6500 C.ar    1  LIG1        0.0330
     25  C         25.1310    9.9520   25.3250 C.ar    1  LIG1        0.0200
     26  N         22.4010   12.0090   23.9250 N.pl3   1  LIG1       -0.0660
     27  C         22.3150   13.1900   24.4880 C.cat   1  LIG1        0.6920
     28  N         22.8200   13.5690   25.7140 N.pl3   1  LIG1       -0.2330
     29  N         21.6670   14.2250   23.8570 N.pl3   1  LIG1       -0.2330
     30  H         23.3080   12.9180   26.2680 H       1  LIG1        0.1740
     31  H         22.6920   14.4910   26.0350 H       1  LIG1        0.1740
     32  H         21.2610   14.0840   22.9710 H       1  LIG1        0.1740
     33  H         21.6100   15.1070   24.2900 H       1  LIG1        0.1740
@<TRIPOS>BOND
     1    32    29    1
     2    29    33    1
     3    29    27    1
     4    26    27    2
     5    26    23    1
     6    27    28    1
     7    23    24   ar
     8    23    22   ar
     9    24    25   ar
    10    22    21   ar
    11    10     9    2
    12    25    20   ar
    13    28    31    1
    14    28    30    1
    15     1     2    1
    16     1    18    1
    17    21    20   ar
    18    20    18    1
    19     7     2   ar
    20     7     6   ar
    21     2     3   ar
    22     6     5   ar
    23     9     8    1
    24     9    11    1
    25     3     4   ar
    26    18    19    2
    27     5     4   ar
    28     5     8    1
    29    11    12    1
    30    14    13    2
    31    13    12    1
    32    13    15   am
    33    17    15    1
    34    15    16    1
@<TRIPOS>MOLECULE
./../dock_file/temp/cc6d6ec66a5504467592c92b48fea120/Camostat_Ligand_CID_2536:hmTMPRSS3:20230411234659/Camostat_Ligand_CID_2536:hmTMPRSS3_out_5.pdbqt
 33 34 0 0 0
SMALL
GASTEIGER

@<TRIPOS>ATOM
      1  O         15.4830   -7.7370   29.1900 O.3     1  LIG1       -0.2750
      2  C         14.3800   -8.1190   29.8910 C.ar    1  LIG1        0.0790
      3  C         13.1110   -7.7340   29.4580 C.ar    1  LIG1        0.0380
      4  C         11.9820   -8.1250   30.1760 C.ar    1  LIG1        0.0100
      5  C         12.1200   -8.9030   31.3260 C.ar    1  LIG1       -0.0490
      6  C         13.3900   -9.2880   31.7580 C.ar    1  LIG1        0.0100
      7  C         14.5200   -8.8960   31.0400 C.ar    1  LIG1        0.0380
      8  C         10.9000   -9.3260   32.1020 C.3     1  LIG1        0.1490
      9  C         10.2210   -8.1750   32.8060 C.2     1  LIG1        0.2630
     10  O          9.3100   -7.5010   32.3460 O.2     1  LIG1       -0.2650
     11  O         10.7840   -8.0010   34.0480 O.3     1  LIG1       -0.3120
     12  C         11.7350   -6.9620   34.1620 C.3     1  LIG1        0.2810
     13  C         12.5640   -7.1670   35.4130 C.2     1  LIG1        0.2430
     14  O         12.3990   -8.1960   36.0730 O.2     1  LIG1       -0.2710
     15  N         13.4840   -6.1710   35.7430 N.am    1  LIG1       -0.3590
     16  C         13.7180   -4.9470   34.9800 C.3     1  LIG1        0.1520
     17  C         14.3110   -6.3260   36.9330 C.3     1  LIG1        0.1520
     18  C         16.1210   -8.7780   28.5110 C.2     1  LIG1        0.2980
     19  O         15.5940   -9.8160   28.1410 O.2     1  LIG1       -0.2590
     20  C         17.5590   -8.4750   28.2970 C.ar    1  LIG1        0.0400
     21  C         18.2030   -7.5410   29.1080 C.ar    1  LIG1        0.0200
     22  C         19.5540   -7.2580   28.9080 C.ar    1  LIG1        0.0330
     23  C         20.2610   -7.9080   27.8970 C.ar    1  LIG1        0.0750
     24  C         19.6170   -8.8420   27.0850 C.ar    1  LIG1        0.0330
     25  C         18.2660   -9.1250   27.2850 C.ar    1  LIG1        0.0200
     26  N         21.6160   -7.6230   27.6960 N.pl3   1  LIG1       -0.0660
     27  C         22.5140   -8.3140   28.3570 C.cat   1  LIG1        0.6920
     28  N         22.2860   -9.3280   29.2630 N.pl3   1  LIG1       -0.2330
     29  N         23.8550   -8.0660   28.1880 N.pl3   1  LIG1       -0.2330
     30  H         21.3640   -9.6020   29.4730 H       1  LIG1        0.1740
     31  H         23.0460   -9.7770   29.7000 H       1  LIG1        0.1740
     32  H         24.1520   -7.3640   27.5660 H       1  LIG1        0.1740
     33  H         24.5200   -8.5920   28.6900 H       1  LIG1        0.1740
@<TRIPOS>BOND
     1    24    25   ar
     2    24    23   ar
     3    25    20   ar
     4    32    29    1
     5    26    23    1
     6    26    27    2
     7    23    22   ar
     8    19    18    2
     9    29    27    1
    10    29    33    1
    11    20    18    1
    12    20    21   ar
    13    27    28    1
    14    18     1    1
    15    22    21   ar
    16     1     2    1
    17    28    30    1
    18    28    31    1
    19     3     2   ar
    20     3     4   ar
    21     2     7   ar
    22     4     5   ar
    23     7     6   ar
    24     5     6   ar
    25     5     8    1
    26     8     9    1
    27    10     9    2
    28     9    11    1
    29    11    12    1
    30    12    13    1
    31    16    15    1
    32    13    15   am
    33    13    14    2
    34    15    17    1
