@<TRIPOS>MOLECULE
./../dock_file/temp/cc6d6ec66a5504467592c92b48fea120/Camostat_Ligand_CID_2536:hmTMPRSS3:20230411234659/Camostat_Ligand_CID_2536:hmTMPRSS3_out_2.pdbqt
 33 34 0 0 0
SMALL
GASTEIGER

@<TRIPOS>ATOM
      1  O         -2.4400   -9.7070   30.0670 O.3     1  LIG1       -0.2750
      2  C         -1.3790  -10.5560   30.1370 C.ar    1  LIG1        0.0790
      3  C         -1.3490  -11.5570   31.1080 C.ar    1  LIG1        0.0380
      4  C         -0.2630  -12.4270   31.1800 C.ar    1  LIG1        0.0100
      5  C          0.7960  -12.2980   30.2800 C.ar    1  LIG1       -0.0490
      6  C          0.7660  -11.2970   29.3090 C.ar    1  LIG1        0.0100
      7  C         -0.3220  -10.4260   29.2370 C.ar    1  LIG1        0.0380
      8  C          1.9700  -13.2380   30.3570 C.3     1  LIG1        0.1490
      9  C          1.6130  -14.5800   30.9520 C.2     1  LIG1        0.2630
     10  O          0.9240  -15.4340   30.4110 O.2     1  LIG1       -0.2650
     11  O          2.1840  -14.6970   32.1970 O.3     1  LIG1       -0.3120
     12  C          1.4290  -15.3910   33.1670 C.3     1  LIG1        0.2810
     13  C          2.0700  -15.2220   34.5290 C.2     1  LIG1        0.2430
     14  O          2.9390  -16.0240   34.8790 O.2     1  LIG1       -0.2710
     15  N          1.6400  -14.1500   35.3120 N.am    1  LIG1       -0.3590
     16  C          0.6260  -13.1720   34.9260 C.3     1  LIG1        0.1520
     17  C          2.2340  -13.9410   36.6260 C.3     1  LIG1        0.1520
     18  C         -3.3720  -10.0320   29.0780 C.2     1  LIG1        0.2980
     19  O         -3.3770  -11.0560   28.4120 O.2     1  LIG1       -0.2590
     20  C         -4.3770   -8.9510   28.9130 C.ar    1  LIG1        0.0400
     21  C         -5.1600   -8.8960   27.7610 C.ar    1  LIG1        0.0200
     22  C         -6.1040   -7.8810   27.6060 C.ar    1  LIG1        0.0330
     23  C         -6.2640   -6.9190   28.6040 C.ar    1  LIG1        0.0750
     24  C         -5.4810   -6.9740   29.7570 C.ar    1  LIG1        0.0330
     25  C         -4.5370   -7.9890   29.9120 C.ar    1  LIG1        0.0200
     26  N         -7.2110   -5.9010   28.4490 N.pl3   1  LIG1       -0.0660
     27  C         -6.8920   -4.8410   27.7460 C.cat   1  LIG1        0.6920
     28  N         -5.6940   -4.5890   27.1130 N.pl3   1  LIG1       -0.2330
     29  N         -7.7940   -3.8180   27.5690 N.pl3   1  LIG1       -0.2330
     30  H         -4.9630   -5.2450   27.1640 H       1  LIG1        0.1740
     31  H         -5.5700   -3.7500   26.6110 H       1  LIG1        0.1740
     32  H         -8.6900   -3.8770   27.9720 H       1  LIG1        0.1740
     33  H         -7.5420   -3.0270   27.0390 H       1  LIG1        0.1740
@<TRIPOS>BOND
     1    31    28    1
     2    33    29    1
     3    28    30    1
     4    28    27    1
     5    29    27    1
     6    29    32    1
     7    22    21   ar
     8    22    23   ar
     9    27    26    2
    10    21    20   ar
    11    19    18    2
    12    26    23    1
    13    23    24   ar
    14    20    18    1
    15    20    25   ar
    16    18     1    1
    17     7     6   ar
    18     7     2   ar
    19     6     5   ar
    20    24    25   ar
    21     1     2    1
    22     2     3   ar
    23     5     8    1
    24     5     4   ar
    25     8     9    1
    26    10     9    2
    27     9    11    1
    28     3     4   ar
    29    11    12    1
    30    12    13    1
    31    13    14    2
    32    13    15   am
    33    16    15    1
    34    15    17    1
@<TRIPOS>MOLECULE
./../dock_file/temp/cc6d6ec66a5504467592c92b48fea120/Camostat_Ligand_CID_2536:hmTMPRSS3:20230411234659/Camostat_Ligand_CID_2536:hmTMPRSS3_out_2.pdbqt
 33 34 0 0 0
SMALL
GASTEIGER

@<TRIPOS>ATOM
      1  O         -4.6930  -11.6080   17.0570 O.3     1  LIG1       -0.2750
      2  C         -3.7950  -12.4980   17.5620 C.ar    1  LIG1        0.0790
      3  C         -2.9900  -13.2430   16.7010 C.ar    1  LIG1        0.0380
      4  C         -2.0700  -14.1540   17.2190 C.ar    1  LIG1        0.0100
      5  C         -1.9550  -14.3200   18.5990 C.ar    1  LIG1       -0.0490
      6  C         -2.7610  -13.5750   19.4610 C.ar    1  LIG1        0.0100
      7  C         -3.6810  -12.6640   18.9420 C.ar    1  LIG1        0.0380
      8  C         -0.9620  -15.3050   19.1600 C.3     1  LIG1        0.1490
      9  C         -1.1930  -16.7160   18.6730 C.2     1  LIG1        0.2630
     10  O         -0.4580  -17.3330   17.9140 O.2     1  LIG1       -0.2650
     11  O         -2.3580  -17.2040   19.2160 O.3     1  LIG1       -0.3120
     12  C         -2.3760  -17.3580   20.6190 C.3     1  LIG1        0.2810
     13  C         -1.9390  -18.7620   20.9830 C.2     1  LIG1        0.2430
     14  O         -2.6710  -19.7090   20.6810 O.2     1  LIG1       -0.2710
     15  N         -0.7150  -18.9050   21.6390 N.am    1  LIG1       -0.3590
     16  C          0.1840  -17.8110   22.0000 C.3     1  LIG1        0.1520
     17  C         -0.2480  -20.2360   22.0020 C.3     1  LIG1        0.1520
     18  C         -4.3770  -10.2700   17.3040 C.2     1  LIG1        0.2980
     19  O         -3.3640   -9.6970   16.9350 O.2     1  LIG1       -0.2590
     20  C         -5.4390   -9.6090   18.1050 C.ar    1  LIG1        0.0400
     21  C         -5.2110   -9.3010   19.4460 C.ar    1  LIG1        0.0200
     22  C         -6.2090   -8.6800   20.1980 C.ar    1  LIG1        0.0330
     23  C         -7.4340   -8.3670   19.6090 C.ar    1  LIG1        0.0750
     24  C         -7.6620   -8.6760   18.2680 C.ar    1  LIG1        0.0330
     25  C         -6.6650   -9.2970   17.5160 C.ar    1  LIG1        0.0200
     26  N         -8.4340   -7.7440   20.3640 N.pl3   1  LIG1       -0.0660
     27  C         -8.5180   -6.4360   20.3470 C.cat   1  LIG1        0.6920
     28  N         -7.7140   -5.5570   19.6530 N.pl3   1  LIG1       -0.2330
     29  N         -9.4860   -5.7850   21.0740 N.pl3   1  LIG1       -0.2330
     30  H         -6.9810   -5.8970   19.0930 H       1  LIG1        0.1740
     31  H         -7.8750   -4.5870   19.7190 H       1  LIG1        0.1740
     32  H        -10.1270   -6.3010   21.6140 H       1  LIG1        0.1740
     33  H         -9.5390   -4.8020   21.0530 H       1  LIG1        0.1740
@<TRIPOS>BOND
     1     3     4   ar
     2     3     2   ar
     3    19    18    2
     4     1    18    1
     5     1     2    1
     6     4     5   ar
     7    18    20    1
     8    25    20   ar
     9    25    24   ar
    10     2     7   ar
    11    10     9    2
    12    20    21   ar
    13    24    23   ar
    14     5     8    1
    15     5     6   ar
    16     9     8    1
    17     9    11    1
    18     7     6   ar
    19    30    28    1
    20    11    12    1
    21    21    22   ar
    22    23    22   ar
    23    23    26    1
    24    28    31    1
    25    28    27    1
    26    27    26    2
    27    27    29    1
    28    12    13    1
    29    14    13    2
    30    13    15   am
    31    33    29    1
    32    29    32    1
    33    15    16    1
    34    15    17    1
@<TRIPOS>MOLECULE
./../dock_file/temp/cc6d6ec66a5504467592c92b48fea120/Camostat_Ligand_CID_2536:hmTMPRSS3:20230411234659/Camostat_Ligand_CID_2536:hmTMPRSS3_out_2.pdbqt
 33 34 0 0 0
SMALL
GASTEIGER

@<TRIPOS>ATOM
      1  O         -3.6760  -10.9160   30.0210 O.3     1  LIG1       -0.2750
      2  C         -2.3930  -11.3680   30.0620 C.ar    1  LIG1        0.0790
      3  C         -1.3340  -10.4840   29.8530 C.ar    1  LIG1        0.0380
      4  C         -0.0200  -10.9480   29.8950 C.ar    1  LIG1        0.0100
      5  C          0.2370  -12.2960   30.1470 C.ar    1  LIG1       -0.0490
      6  C         -0.8220  -13.1800   30.3560 C.ar    1  LIG1        0.0100
      7  C         -2.1370  -12.7160   30.3140 C.ar    1  LIG1        0.0380
      8  C          1.6570  -12.7980   30.1930 C.3     1  LIG1        0.1490
      9  C          2.0140  -13.4370   31.5140 C.2     1  LIG1        0.2630
     10  O          2.3760  -14.5950   31.6660 O.2     1  LIG1       -0.2650
     11  O          1.8710  -12.5150   32.5240 O.3     1  LIG1       -0.3120
     12  C          1.4850  -13.0230   33.7830 C.3     1  LIG1        0.2810
     13  C          0.1510  -12.4280   34.1850 C.2     1  LIG1        0.2430
     14  O         -0.3190  -11.5120   33.5060 O.2     1  LIG1       -0.2710
     15  N         -0.4790  -12.9650   35.3080 N.am    1  LIG1       -0.3590
     16  C          0.0370  -14.0590   36.1280 C.3     1  LIG1        0.1520
     17  C         -1.7690  -12.4320   35.7290 C.3     1  LIG1        0.1520
     18  C         -4.1050  -10.5200   28.7520 C.2     1  LIG1        0.2980
     19  O         -3.8900  -11.1170   27.7080 O.2     1  LIG1       -0.2590
     20  C         -4.8620   -9.2430   28.8180 C.ar    1  LIG1        0.0400
     21  C         -6.0110   -9.0730   28.0460 C.ar    1  LIG1        0.0200
     22  C         -6.7210   -7.8750   28.1080 C.ar    1  LIG1        0.0330
     23  C         -6.2830   -6.8460   28.9410 C.ar    1  LIG1        0.0750
     24  C         -5.1340   -7.0150   29.7140 C.ar    1  LIG1        0.0330
     25  C         -4.4230   -8.2140   29.6520 C.ar    1  LIG1        0.0200
     26  N         -6.9960   -5.6440   29.0030 N.pl3   1  LIG1       -0.0660
     27  C         -6.7970   -4.7400   28.0740 C.cat   1  LIG1        0.6920
     28  N         -5.9400   -4.8250   26.9980 N.pl3   1  LIG1       -0.2330
     29  N         -7.4780   -3.5460   28.0980 N.pl3   1  LIG1       -0.2330
     30  H         -5.3930   -5.6310   26.8660 H       1  LIG1        0.1740
     31  H         -5.8750   -4.0760   26.3610 H       1  LIG1        0.1740
     32  H         -8.1230   -3.3620   28.8180 H       1  LIG1        0.1740
     33  H         -7.3200   -2.8760   27.3940 H       1  LIG1        0.1740
@<TRIPOS>BOND
     1    31    28    1
     2    30    28    1
     3    28    27    1
     4    33    29    1
     5    19    18    2
     6    21    22   ar
     7    21    20   ar
     8    27    29    1
     9    27    26    2
    10    29    32    1
    11    22    23   ar
    12    18    20    1
    13    18     1    1
    14    20    25   ar
    15    23    26    1
    16    23    24   ar
    17    25    24   ar
    18     3     4   ar
    19     3     2   ar
    20     4     5   ar
    21     1     2    1
    22     2     7   ar
    23     5     8    1
    24     5     6   ar
    25     8     9    1
    26     7     6   ar
    27     9    10    2
    28     9    11    1
    29    11    12    1
    30    14    13    2
    31    12    13    1
    32    13    15   am
    33    15    17    1
    34    15    16    1
@<TRIPOS>MOLECULE
./../dock_file/temp/cc6d6ec66a5504467592c92b48fea120/Camostat_Ligand_CID_2536:hmTMPRSS3:20230411234659/Camostat_Ligand_CID_2536:hmTMPRSS3_out_2.pdbqt
 33 34 0 0 0
SMALL
GASTEIGER

@<TRIPOS>ATOM
      1  O         -1.8520  -16.5470   17.9560 O.3     1  LIG1       -0.2750
      2  C         -1.2050  -17.5370   18.6300 C.ar    1  LIG1        0.0790
      3  C         -1.1270  -17.4980   20.0220 C.ar    1  LIG1        0.0380
      4  C         -0.4640  -18.5130   20.7120 C.ar    1  LIG1        0.0100
      5  C          0.1200  -19.5680   20.0100 C.ar    1  LIG1       -0.0490
      6  C          0.0410  -19.6070   18.6180 C.ar    1  LIG1        0.0100
      7  C         -0.6220  -18.5910   17.9280 C.ar    1  LIG1        0.0380
      8  C          0.8360  -20.6640   20.7550 C.3     1  LIG1        0.1490
      9  C          1.4440  -20.1930   22.0550 C.2     1  LIG1        0.2630
     10  O          2.3920  -19.4270   22.1570 O.2     1  LIG1       -0.2650
     11  O          0.7670  -20.7570   23.1100 O.3     1  LIG1       -0.3120
     12  C          0.6270  -22.1610   23.0830 C.3     1  LIG1        0.2810
     13  C          1.6590  -22.7940   23.9930 C.2     1  LIG1        0.2430
     14  O          1.5030  -22.7110   25.2140 O.2     1  LIG1       -0.2710
     15  N          2.7330  -23.4490   23.3890 N.am    1  LIG1       -0.3590
     16  C          2.9430  -23.5810   21.9490 C.3     1  LIG1        0.1520
     17  C          3.7470  -24.0810   24.2230 C.3     1  LIG1        0.1520
     18  C         -1.1800  -15.3230   17.9490 C.2     1  LIG1        0.2980
     19  O          0.0330  -15.1750   17.9340 O.2     1  LIG1       -0.2590
     20  C         -2.1360  -14.1870   17.9800 C.ar    1  LIG1        0.0400
     21  C         -2.7130  -13.7290   16.7960 C.ar    1  LIG1        0.0200
     22  C         -3.6110  -12.6620   16.8250 C.ar    1  LIG1        0.0330
     23  C         -3.9320  -12.0530   18.0380 C.ar    1  LIG1        0.0750
     24  C         -3.3550  -12.5110   19.2230 C.ar    1  LIG1        0.0330
     25  C         -2.4560  -13.5770   19.1940 C.ar    1  LIG1        0.0200
     26  N         -4.8330  -10.9830   18.0670 N.pl3   1  LIG1       -0.0660
     27  C         -4.5730   -9.9160   17.3500 C.cat   1  LIG1        0.6920
     28  N         -3.4810   -9.7020   16.5380 N.pl3   1  LIG1       -0.2330
     29  N         -5.4330   -8.8430   17.3510 N.pl3   1  LIG1       -0.2330
     30  H         -2.7890  -10.3960   16.4510 H       1  LIG1        0.1740
     31  H         -3.3930   -8.8530   16.0450 H       1  LIG1        0.1740
     32  H         -6.2540   -8.8710   17.8930 H       1  LIG1        0.1740
     33  H         -5.2270   -8.0470   16.8080 H       1  LIG1        0.1740
@<TRIPOS>BOND
     1    31    28    1
     2    30    28    1
     3    28    27    1
     4    21    22   ar
     5    21    20   ar
     6    33    29    1
     7    22    23   ar
     8    27    29    1
     9    27    26    2
    10    29    32    1
    11     7     6   ar
    12     7     2   ar
    13    19    18    2
    14    18     1    1
    15    18    20    1
    16     1     2    1
    17    20    25   ar
    18    23    26    1
    19    23    24   ar
    20     6     5   ar
    21     2     3   ar
    22    25    24   ar
    23     5     4   ar
    24     5     8    1
    25     3     4   ar
    26     8     9    1
    27    16    15    1
    28     9    10    2
    29     9    11    1
    30    12    11    1
    31    12    13    1
    32    15    13   am
    33    15    17    1
    34    13    14    2
@<TRIPOS>MOLECULE
./../dock_file/temp/cc6d6ec66a5504467592c92b48fea120/Camostat_Ligand_CID_2536:hmTMPRSS3:20230411234659/Camostat_Ligand_CID_2536:hmTMPRSS3_out_2.pdbqt
 33 34 0 0 0
SMALL
GASTEIGER

@<TRIPOS>ATOM
      1  O         -4.8990  -12.7740   24.0120 O.3     1  LIG1       -0.2750
      2  C         -4.7120  -12.3200   25.2820 C.ar    1  LIG1        0.0790
      3  C         -5.1250  -11.0340   25.6320 C.ar    1  LIG1        0.0380
      4  C         -4.9330  -10.5700   26.9320 C.ar    1  LIG1        0.0100
      5  C         -4.3270  -11.3910   27.8840 C.ar    1  LIG1       -0.0490
      6  C         -3.9130  -12.6760   27.5340 C.ar    1  LIG1        0.0100
      7  C         -4.1060  -13.1410   26.2320 C.ar    1  LIG1        0.0380
      8  C         -4.1190  -10.8890   29.2890 C.3     1  LIG1        0.1490
      9  C         -3.2870   -9.6290   29.3480 C.2     1  LIG1        0.2630
     10  O         -3.7240   -8.4980   29.5060 O.2     1  LIG1       -0.2650
     11  O         -1.9580   -9.9490   29.1970 O.3     1  LIG1       -0.3120
     12  C         -1.3390  -10.5800   30.2980 C.3     1  LIG1        0.2810
     13  C         -0.3620  -11.6260   29.8020 C.2     1  LIG1        0.2430
     14  O         -0.4480  -12.0120   28.6330 O.2     1  LIG1       -0.2710
     15  N          0.5940  -12.0910   30.7050 N.am    1  LIG1       -0.3590
     16  C          0.7370  -11.6490   32.0900 C.3     1  LIG1        0.1520
     17  C          1.5610  -13.0920   30.2720 C.3     1  LIG1        0.1520
     18  C         -6.0970  -12.3570   23.4250 C.2     1  LIG1        0.2980
     19  O         -7.2170  -12.7040   23.7670 O.2     1  LIG1       -0.2590
     20  C         -5.8430  -11.4310   22.2920 C.ar    1  LIG1        0.0400
     21  C         -4.7490  -11.6390   21.4530 C.ar    1  LIG1        0.0200
     22  C         -4.5120  -10.7690   20.3890 C.ar    1  LIG1        0.0330
     23  C         -5.3670   -9.6900   20.1640 C.ar    1  LIG1        0.0750
     24  C         -6.4610   -9.4820   21.0040 C.ar    1  LIG1        0.0330
     25  C         -6.6990  -10.3520   22.0680 C.ar    1  LIG1        0.0200
     26  N         -5.1280   -8.8180   19.0970 N.pl3   1  LIG1       -0.0660
     27  C         -5.7900   -8.9900   17.9780 C.cat   1  LIG1        0.6920
     28  N         -6.7300   -9.9600   17.7040 N.pl3   1  LIG1       -0.2330
     29  N         -5.5850   -8.1540   16.9060 N.pl3   1  LIG1       -0.2330
     30  H         -6.9670  -10.6230   18.3910 H       1  LIG1        0.1740
     31  H         -7.1620   -9.9900   16.8200 H       1  LIG1        0.1740
     32  H         -4.9370   -7.4160   16.9730 H       1  LIG1        0.1740
     33  H         -6.0880   -8.2930   16.0710 H       1  LIG1        0.1740
@<TRIPOS>BOND
     1    33    29    1
     2    31    28    1
     3    29    32    1
     4    29    27    1
     5    28    27    1
     6    28    30    1
     7    27    26    2
     8    26    23    1
     9    23    22   ar
    10    23    24   ar
    11    22    21   ar
    12    24    25   ar
    13    21    20   ar
    14    25    20   ar
    15    20    18    1
    16    18    19    2
    17    18     1    1
    18     1     2    1
    19     2     3   ar
    20     2     7   ar
    21     3     4   ar
    22     7     6   ar
    23     4     5   ar
    24     6     5   ar
    25     5     8    1
    26    14    13    2
    27    11     9    1
    28    11    12    1
    29     8     9    1
    30     9    10    2
    31    13    12    1
    32    13    15   am
    33    17    15    1
    34    15    16    1
@<TRIPOS>MOLECULE
./../dock_file/temp/cc6d6ec66a5504467592c92b48fea120/Camostat_Ligand_CID_2536:hmTMPRSS3:20230411234659/Camostat_Ligand_CID_2536:hmTMPRSS3_out_2.pdbqt
 33 34 0 0 0
SMALL
GASTEIGER

@<TRIPOS>ATOM
      1  O         -5.2040   -9.3900   28.0270 O.3     1  LIG1       -0.2750
      2  C         -4.1640  -10.0300   28.6270 C.ar    1  LIG1        0.0790
      3  C         -3.3330   -9.3380   29.5080 C.ar    1  LIG1        0.0380
      4  C         -2.2670   -9.9940   30.1230 C.ar    1  LIG1        0.0100
      5  C         -2.0320  -11.3440   29.8570 C.ar    1  LIG1       -0.0490
      6  C         -2.8630  -12.0350   28.9750 C.ar    1  LIG1        0.0100
      7  C         -3.9290  -11.3790   28.3600 C.ar    1  LIG1        0.0380
      8  C         -0.8800  -12.0530   30.5210 C.3     1  LIG1        0.1490
      9  C          0.4090  -11.9400   29.7420 C.2     1  LIG1        0.2630
     10  O          0.8360  -10.9180   29.2230 O.2     1  LIG1       -0.2650
     11  O          1.0330  -13.1640   29.7060 O.3     1  LIG1       -0.3120
     12  C          2.2390  -13.2720   30.4320 C.3     1  LIG1        0.2810
     13  C          2.1010  -14.3480   31.4900 C.2     1  LIG1        0.2430
     14  O          2.1830  -15.5300   31.1480 O.2     1  LIG1       -0.2710
     15  N          1.8970  -13.9310   32.8060 N.am    1  LIG1       -0.3590
     16  C          1.8100  -12.5420   33.2520 C.3     1  LIG1        0.1520
     17  C          1.7670  -14.9290   33.8610 C.3     1  LIG1        0.1520
     18  C         -6.2040   -8.9670   28.9070 C.2     1  LIG1        0.2980
     19  O         -6.7660   -9.6670   29.7360 O.2     1  LIG1       -0.2590
     20  C         -6.5260   -7.5320   28.7020 C.ar    1  LIG1        0.0400
     21  C         -5.6670   -6.5480   29.1920 C.ar    1  LIG1        0.0200
     22  C         -5.9700   -5.2000   28.9990 C.ar    1  LIG1        0.0330
     23  C         -7.1310   -4.8360   28.3180 C.ar    1  LIG1        0.0750
     24  C         -7.9900   -5.8200   27.8280 C.ar    1  LIG1        0.0330
     25  C         -7.6870   -7.1680   28.0210 C.ar    1  LIG1        0.0200
     26  N         -7.4340   -3.4840   28.1250 N.pl3   1  LIG1       -0.0660
     27  C         -8.1720   -2.8660   29.0160 C.cat   1  LIG1        0.6920
     28  N         -8.7110   -3.3990   30.1670 N.pl3   1  LIG1       -0.2330
     29  N         -8.4920   -1.5380   28.8640 N.pl3   1  LIG1       -0.2330
     30  H         -8.5550   -4.3440   30.3920 H       1  LIG1        0.1740
     31  H         -9.2530   -2.8330   30.7640 H       1  LIG1        0.1740
     32  H         -8.1670   -1.0400   28.0800 H       1  LIG1        0.1740
     33  H         -9.0470   -1.0850   29.5400 H       1  LIG1        0.1740
@<TRIPOS>BOND
     1    24    25   ar
     2    24    23   ar
     3    25    20   ar
     4     1     2    1
     5     1    18    1
     6    32    29    1
     7    26    23    1
     8    26    27    2
     9    23    22   ar
    10     7     2   ar
    11     7     6   ar
    12     2     3   ar
    13    20    18    1
    14    20    21   ar
    15    29    27    1
    16    29    33    1
    17    18    19    2
    18     6     5   ar
    19    22    21   ar
    20    27    28    1
    21    10     9    2
    22     3     4   ar
    23    11     9    1
    24    11    12    1
    25     9     8    1
    26     5     4   ar
    27     5     8    1
    28    28    30    1
    29    28    31    1
    30    12    13    1
    31    14    13    2
    32    13    15   am
    33    15    16    1
    34    15    17    1
@<TRIPOS>MOLECULE
./../dock_file/temp/cc6d6ec66a5504467592c92b48fea120/Camostat_Ligand_CID_2536:hmTMPRSS3:20230411234659/Camostat_Ligand_CID_2536:hmTMPRSS3_out_2.pdbqt
 33 34 0 0 0
SMALL
GASTEIGER

@<TRIPOS>ATOM
      1  O         -2.3100   -9.8230   30.0610 O.3     1  LIG1       -0.2750
      2  C         -1.2640  -10.6860   30.1780 C.ar    1  LIG1        0.0790
      3  C         -1.2790  -11.6700   31.1670 C.ar    1  LIG1        0.0380
      4  C         -0.2080  -12.5550   31.2860 C.ar    1  LIG1        0.0100
      5  C          0.8780  -12.4580   30.4160 C.ar    1  LIG1       -0.0490
      6  C          0.8920  -11.4740   29.4270 C.ar    1  LIG1        0.0100
      7  C         -0.1790  -10.5890   29.3070 C.ar    1  LIG1        0.0380
      8  C          2.0350  -13.4140   30.5440 C.3     1  LIG1        0.1490
      9  C          2.0180  -14.1880   31.8420 C.2     1  LIG1        0.2630
     10  O          1.9900  -13.6950   32.9610 O.2     1  LIG1       -0.2650
     11  O          2.0390  -15.5360   31.5720 O.3     1  LIG1       -0.3120
     12  C          0.7950  -16.2020   31.6220 C.3     1  LIG1        0.2810
     13  C          0.6640  -17.1230   30.4270 C.2     1  LIG1        0.2430
     14  O          1.3720  -18.1320   30.3750 O.2     1  LIG1       -0.2710
     15  N         -0.2690  -16.7780   29.4490 N.am    1  LIG1       -0.3590
     16  C         -1.1360  -15.6020   29.4830 C.3     1  LIG1        0.1520
     17  C         -0.4390  -17.6380   28.2850 C.3     1  LIG1        0.1520
     18  C         -3.2390  -10.1740   29.0790 C.2     1  LIG1        0.2980
     19  O         -3.2910  -11.2480   28.4990 O.2     1  LIG1       -0.2590
     20  C         -4.1730   -9.0540   28.8010 C.ar    1  LIG1        0.0400
     21  C         -4.4000   -8.0780   29.7700 C.ar    1  LIG1        0.0200
     22  C         -5.2780   -7.0260   29.5090 C.ar    1  LIG1        0.0330
     23  C         -5.9300   -6.9500   28.2780 C.ar    1  LIG1        0.0750
     24  C         -5.7030   -7.9270   27.3080 C.ar    1  LIG1        0.0330
     25  C         -4.8260   -8.9790   27.5690 C.ar    1  LIG1        0.0200
     26  N         -6.8100   -5.8950   28.0160 N.pl3   1  LIG1       -0.0660
     27  C         -8.0720   -6.0260   28.3470 C.cat   1  LIG1        0.6920
     28  N         -8.6700   -7.1140   28.9440 N.pl3   1  LIG1       -0.2330
     29  N         -8.9700   -5.0120   28.1060 N.pl3   1  LIG1       -0.2330
     30  H         -8.1350   -7.9090   29.1670 H       1  LIG1        0.1740
     31  H         -9.6340   -7.0970   29.1450 H       1  LIG1        0.1740
     32  H         -8.6670   -4.1770   27.6830 H       1  LIG1        0.1740
     33  H         -9.9150   -5.1220   28.3590 H       1  LIG1        0.1740
@<TRIPOS>BOND
     1    24    25   ar
     2    24    23   ar
     3    25    20   ar
     4    32    29    1
     5    26    23    1
     6    26    27    2
     7    29    27    1
     8    29    33    1
     9    23    22   ar
    10    17    15    1
    11    27    28    1
    12    19    18    2
    13    20    18    1
    14    20    21   ar
    15    28    31    1
    16    28    30    1
    17    18     1    1
    18     7     6   ar
    19     7     2   ar
    20     6     5   ar
    21    15    16    1
    22    15    13   am
    23    22    21   ar
    24     1     2    1
    25     2     3   ar
    26    14    13    2
    27     5     8    1
    28     5     4   ar
    29    13    12    1
    30     8     9    1
    31     3     4   ar
    32    11    12    1
    33    11     9    1
    34     9    10    2
@<TRIPOS>MOLECULE
./../dock_file/temp/cc6d6ec66a5504467592c92b48fea120/Camostat_Ligand_CID_2536:hmTMPRSS3:20230411234659/Camostat_Ligand_CID_2536:hmTMPRSS3_out_2.pdbqt
 33 34 0 0 0
SMALL
GASTEIGER

@<TRIPOS>ATOM
      1  O         -4.2520   -9.7940   27.8810 O.3     1  LIG1       -0.2750
      2  C         -4.8060   -8.5930   28.2040 C.ar    1  LIG1        0.0790
      3  C         -5.6710   -7.9600   27.3120 C.ar    1  LIG1        0.0380
      4  C         -6.2380   -6.7310   27.6440 C.ar    1  LIG1        0.0100
      5  C         -5.9410   -6.1330   28.8690 C.ar    1  LIG1       -0.0490
      6  C         -5.0750   -6.7660   29.7620 C.ar    1  LIG1        0.0100
      7  C         -4.5080   -7.9960   29.4290 C.ar    1  LIG1        0.0380
      8  C         -6.5530   -4.8040   29.2290 C.3     1  LIG1        0.1490
      9  C         -7.0270   -4.7420   30.6620 C.2     1  LIG1        0.2630
     10  O         -7.9190   -5.4260   31.1440 O.2     1  LIG1       -0.2650
     11  O         -6.2990   -3.7970   31.3450 O.3     1  LIG1       -0.3120
     12  C         -6.7810   -3.4420   32.6240 C.3     1  LIG1        0.2810
     13  C         -7.2920   -2.0170   32.5990 C.2     1  LIG1        0.2430
     14  O         -8.2730   -1.7510   31.8990 O.2     1  LIG1       -0.2710
     15  N         -6.6210   -1.0790   33.3850 N.am    1  LIG1       -0.3590
     16  C         -5.4670   -1.3590   34.2360 C.3     1  LIG1        0.1520
     17  C         -7.0810    0.3030   33.4000 C.3     1  LIG1        0.1520
     18  C         -4.1480  -10.6860   28.9510 C.2     1  LIG1        0.2980
     19  O         -5.0690  -11.0520   29.6650 O.2     1  LIG1       -0.2590
     20  C         -2.7460  -11.1390   29.1360 C.ar    1  LIG1        0.0400
     21  C         -1.7940  -10.2640   29.6570 C.ar    1  LIG1        0.0200
     22  C         -0.4770  -10.6900   29.8310 C.ar    1  LIG1        0.0330
     23  C         -0.1120  -11.9900   29.4830 C.ar    1  LIG1        0.0750
     24  C         -1.0640  -12.8660   28.9610 C.ar    1  LIG1        0.0330
     25  C         -2.3810  -12.4400   28.7870 C.ar    1  LIG1        0.0200
     26  N          1.2090  -12.4170   29.6580 N.pl3   1  LIG1       -0.0660
     27  C          1.5030  -13.1570   30.7000 C.cat   1  LIG1        0.6920
     28  N          0.6440  -13.5860   31.6880 N.pl3   1  LIG1       -0.2330
     29  N          2.7890  -13.5970   30.9080 N.pl3   1  LIG1       -0.2330
     30  H         -0.3070  -13.3380   31.6550 H       1  LIG1        0.1740
     31  H          0.9830  -14.1410   32.4280 H       1  LIG1        0.1740
     32  H          3.5000  -13.3580   30.2710 H       1  LIG1        0.1740
     33  H          2.9980  -14.1520   31.6940 H       1  LIG1        0.1740
@<TRIPOS>BOND
     1     3     4   ar
     2     3     2   ar
     3     4     5   ar
     4     1     2    1
     5     1    18    1
     6     2     7   ar
     7    25    24   ar
     8    25    20   ar
     9     5     8    1
    10     5     6   ar
    11    18    20    1
    12    18    19    2
    13    24    23   ar
    14    20    21   ar
    15     8     9    1
    16     7     6   ar
    17    23    26    1
    18    23    22   ar
    19    21    22   ar
    20    26    27    2
    21    32    29    1
    22     9    10    2
    23     9    11    1
    24    27    29    1
    25    27    28    1
    26    29    33    1
    27    11    12    1
    28    30    28    1
    29    28    31    1
    30    14    13    2
    31    13    12    1
    32    13    15   am
    33    15    17    1
    34    15    16    1
@<TRIPOS>MOLECULE
./../dock_file/temp/cc6d6ec66a5504467592c92b48fea120/Camostat_Ligand_CID_2536:hmTMPRSS3:20230411234659/Camostat_Ligand_CID_2536:hmTMPRSS3_out_2.pdbqt
 33 34 0 0 0
SMALL
GASTEIGER

@<TRIPOS>ATOM
      1  O         -2.2580  -16.2190   18.5020 O.3     1  LIG1       -0.2750
      2  C         -1.5790  -17.2660   19.0440 C.ar    1  LIG1        0.0790
      3  C         -1.7060  -17.5540   20.4030 C.ar    1  LIG1        0.0380
      4  C         -1.0100  -18.6270   20.9570 C.ar    1  LIG1        0.0100
      5  C         -0.1860  -19.4150   20.1530 C.ar    1  LIG1       -0.0490
      6  C         -0.0580  -19.1270   18.7940 C.ar    1  LIG1        0.0100
      7  C         -0.7550  -18.0530   18.2390 C.ar    1  LIG1        0.0380
      8  C          0.5660  -20.5740   20.7520 C.3     1  LIG1        0.1490
      9  C          1.5870  -20.1460   21.7810 C.2     1  LIG1        0.2630
     10  O          2.0180  -19.0110   21.9210 O.2     1  LIG1       -0.2650
     11  O          1.9570  -21.2320   22.5390 O.3     1  LIG1       -0.3120
     12  C          0.9540  -21.7910   23.3600 C.3     1  LIG1        0.2810
     13  C          0.6680  -20.8620   24.5200 C.2     1  LIG1        0.2430
     14  O          1.5980  -20.5380   25.2640 O.2     1  LIG1       -0.2710
     15  N         -0.6440  -20.4140   24.6770 N.am    1  LIG1       -0.3590
     16  C         -1.7670  -20.7620   23.8100 C.3     1  LIG1        0.1520
     17  C         -0.9660  -19.5100   25.7740 C.3     1  LIG1        0.1520
     18  C         -1.7100  -14.9670   18.7910 C.2     1  LIG1        0.2980
     19  O         -0.5790  -14.7630   19.2060 O.2     1  LIG1       -0.2590
     20  C         -2.6930  -13.8820   18.5430 C.ar    1  LIG1        0.0400
     21  C         -3.3840  -13.8300   17.3330 C.ar    1  LIG1        0.0200
     22  C         -4.3080  -12.8110   17.1010 C.ar    1  LIG1        0.0330
     23  C         -4.5390  -11.8430   18.0770 C.ar    1  LIG1        0.0750
     24  C         -3.8470  -11.8940   19.2880 C.ar    1  LIG1        0.0330
     25  C         -2.9240  -12.9130   19.5200 C.ar    1  LIG1        0.0200
     26  N         -5.4650  -10.8210   17.8440 N.pl3   1  LIG1       -0.0660
     27  C         -5.1020   -9.7900   17.1200 C.cat   1  LIG1        0.6920
     28  N         -3.8740   -9.5720   16.5340 N.pl3   1  LIG1       -0.2330
     29  N         -5.9830   -8.7640   16.8670 N.pl3   1  LIG1       -0.2330
     30  H         -3.1540  -10.2340   16.6410 H       1  LIG1        0.1740
     31  H         -3.7170   -8.7530   16.0100 H       1  LIG1        0.1740
     32  H         -6.8960   -8.7990   17.2300 H       1  LIG1        0.1740
     33  H         -5.6980   -7.9950   16.3220 H       1  LIG1        0.1740
@<TRIPOS>BOND
     1    31    28    1
     2    33    29    1
     3    28    30    1
     4    28    27    1
     5    29    27    1
     6    29    32    1
     7    22    21   ar
     8    22    23   ar
     9    27    26    2
    10    21    20   ar
    11    26    23    1
    12    23    24   ar
    13     7     6   ar
    14     7     2   ar
    15     1    18    1
    16     1     2    1
    17    20    18    1
    18    20    25   ar
    19    18    19    2
    20     6     5   ar
    21     2     3   ar
    22    24    25   ar
    23     5     8    1
    24     5     4   ar
    25     3     4   ar
    26     8     9    1
    27     9    10    2
    28     9    11    1
    29    11    12    1
    30    12    13    1
    31    16    15    1
    32    13    15   am
    33    13    14    2
    34    15    17    1
