@<TRIPOS>MOLECULE
./../dock_file/temp/2748de4610c9ca1ec09a936055979b57/Camostat_Ligand_CID_2536:hmTMPRSS11_A:20230418100237/Camostat_Ligand_CID_2536:hmTMPRSS11_A_out_1.pdbqt
 33 34 0 0 0
SMALL
GASTEIGER

@<TRIPOS>ATOM
      1  O          9.9200    3.9240    5.5350 O.3     1  LIG1       -0.2750
      2  C         11.0900    3.2880    5.2550 C.ar    1  LIG1        0.0790
      3  C         11.3930    2.9310    3.9400 C.ar    1  LIG1        0.0380
      4  C         12.5910    2.2790    3.6540 C.ar    1  LIG1        0.0100
      5  C         13.4890    1.9840    4.6810 C.ar    1  LIG1       -0.0490
      6  C         13.1860    2.3420    5.9950 C.ar    1  LIG1        0.0100
      7  C         11.9860    2.9940    6.2820 C.ar    1  LIG1        0.0380
      8  C         14.7840    1.2800    4.3710 C.3     1  LIG1        0.1490
      9  C         15.9730    2.2120    4.3550 C.2     1  LIG1        0.2630
     10  O         16.1240    3.1550    3.5910 O.2     1  LIG1       -0.2650
     11  O         16.8620    1.8390    5.3350 O.3     1  LIG1       -0.3120
     12  C         18.1700    1.5270    4.9050 C.3     1  LIG1        0.2810
     13  C         19.1670    2.4140    5.6230 C.2     1  LIG1        0.2430
     14  O         19.3060    2.2850    6.8420 O.2     1  LIG1       -0.2710
     15  N         19.8840    3.3290    4.8510 N.am    1  LIG1       -0.3590
     16  C         19.7590    3.5010    3.4060 C.3     1  LIG1        0.1520
     17  C         20.8610    4.1980    5.4960 C.3     1  LIG1        0.1520
     18  C          9.9090    5.2810    5.2000 C.2     1  LIG1        0.2980
     19  O         10.8900    5.9540    4.9220 O.2     1  LIG1       -0.2590
     20  C          8.5300    5.8300    5.2370 C.ar    1  LIG1        0.0400
     21  C          8.2490    6.9560    6.0110 C.ar    1  LIG1        0.0200
     22  C          6.9530    7.4720    6.0460 C.ar    1  LIG1        0.0330
     23  C          5.9390    6.8620    5.3080 C.ar    1  LIG1        0.0750
     24  C          6.2200    5.7360    4.5340 C.ar    1  LIG1        0.0330
     25  C          7.5150    5.2200    4.4990 C.ar    1  LIG1        0.0200
     26  N          4.6400    7.3800    5.3430 N.pl3   1  LIG1       -0.0660
     27  C          3.7550    6.8200    6.1320 C.cat   1  LIG1        0.6920
     28  N          3.9470    5.7410    6.9670 N.pl3   1  LIG1       -0.2330
     29  N          2.4680    7.2990    6.1960 N.pl3   1  LIG1       -0.2330
     30  H          4.8280    5.3050    7.0140 H       1  LIG1        0.1740
     31  H          3.2010    5.4050    7.5170 H       1  LIG1        0.1740
     32  H          2.2020    8.0700    5.6460 H       1  LIG1        0.1740
     33  H          1.8130    6.8690    6.7930 H       1  LIG1        0.1740
@<TRIPOS>BOND
     1    16    15    1
     2    10     9    2
     3     4     3   ar
     4     4     5   ar
     5     3     2   ar
     6     9     8    1
     7     9    11    1
     8     8     5    1
     9    25    24   ar
    10    25    20   ar
    11    24    23   ar
    12     5     6   ar
    13    15    17    1
    14    15    13   am
    15    12    11    1
    16    12    13    1
    17    19    18    2
    18    18    20    1
    19    18     1    1
    20    20    21   ar
    21     2     1    1
    22     2     7   ar
    23    23    26    1
    24    23    22   ar
    25    26    27    2
    26    13    14    2
    27    32    29    1
    28     6     7   ar
    29    21    22   ar
    30    27    29    1
    31    27    28    1
    32    29    33    1
    33    28    30    1
    34    28    31    1
@<TRIPOS>MOLECULE
./../dock_file/temp/2748de4610c9ca1ec09a936055979b57/Camostat_Ligand_CID_2536:hmTMPRSS11_A:20230418100237/Camostat_Ligand_CID_2536:hmTMPRSS11_A_out_1.pdbqt
 33 34 0 0 0
SMALL
GASTEIGER

@<TRIPOS>ATOM
      1  O         12.7570   21.9520   20.9070 O.3     1  LIG1       -0.2750
      2  C         12.1440   22.2180   19.7220 C.ar    1  LIG1        0.0790
      3  C         10.7770   22.4930   19.6890 C.ar    1  LIG1        0.0380
      4  C         10.1490   22.7660   18.4750 C.ar    1  LIG1        0.0100
      5  C         10.8880   22.7660   17.2920 C.ar    1  LIG1       -0.0490
      6  C         12.2560   22.4910   17.3240 C.ar    1  LIG1        0.0100
      7  C         12.8840   22.2180   18.5400 C.ar    1  LIG1        0.0380
      8  C         10.2100   23.0610   15.9790 C.3     1  LIG1        0.1490
      9  C         10.4520   21.9930   14.9380 C.2     1  LIG1        0.2630
     10  O         11.0400   22.1570   13.8780 O.2     1  LIG1       -0.2650
     11  O          9.9100   20.8040   15.3650 O.3     1  LIG1       -0.3120
     12  C          9.5890   19.8670   14.3590 C.3     1  LIG1        0.2810
     13  C         10.6680   18.8080   14.2850 C.2     1  LIG1        0.2430
     14  O         10.9270   18.1530   15.2980 O.2     1  LIG1       -0.2710
     15  N         11.3090   18.6270   13.0580 N.am    1  LIG1       -0.3590
     16  C         11.0200   19.3720   11.8350 C.3     1  LIG1        0.1520
     17  C         12.3490   17.6140   12.9360 C.3     1  LIG1        0.1520
     18  C         13.8760   22.7470   21.1670 C.2     1  LIG1        0.2980
     19  O         13.9250   23.9640   21.0640 O.2     1  LIG1       -0.2590
     20  C         15.0370   21.9200   21.5810 C.ar    1  LIG1        0.0400
     21  C         15.6360   22.1290   22.8220 C.ar    1  LIG1        0.0200
     22  C         16.7270   21.3510   23.2100 C.ar    1  LIG1        0.0330
     23  C         17.2190   20.3640   22.3570 C.ar    1  LIG1        0.0750
     24  C         16.6210   20.1540   21.1140 C.ar    1  LIG1        0.0330
     25  C         15.5300   20.9320   20.7260 C.ar    1  LIG1        0.0200
     26  N         18.3130   19.5840   22.7460 N.pl3   1  LIG1       -0.0660
     27  C         19.5200   19.9730   22.4120 C.cat   1  LIG1        0.6920
     28  N         19.8660   21.0990   21.6970 N.pl3   1  LIG1       -0.2330
     29  N         20.6220   19.2350   22.7760 N.pl3   1  LIG1       -0.2330
     30  H         19.1670   21.7130   21.3770 H       1  LIG1        0.1740
     31  H         20.8140   21.2880   21.5060 H       1  LIG1        0.1740
     32  H         20.5100   18.4050   23.2920 H       1  LIG1        0.1740
     33  H         21.5230   19.5380   22.5200 H       1  LIG1        0.1740
@<TRIPOS>BOND
     1    16    15    1
     2    17    15    1
     3    15    13   am
     4    10     9    2
     5    13    12    1
     6    13    14    2
     7    12    11    1
     8     9    11    1
     9     9     8    1
    10     8     5    1
    11     5     6   ar
    12     5     4   ar
    13     6     7   ar
    14     4     3   ar
    15     7     2   ar
    16     3     2   ar
    17     2     1    1
    18    25    24   ar
    19    25    20   ar
    20     1    18    1
    21    19    18    2
    22    24    23   ar
    23    18    20    1
    24    30    28    1
    25    31    28    1
    26    20    21   ar
    27    28    27    1
    28    23    26    1
    29    23    22   ar
    30    27    26    2
    31    27    29    1
    32    33    29    1
    33    29    32    1
    34    21    22   ar
@<TRIPOS>MOLECULE
./../dock_file/temp/2748de4610c9ca1ec09a936055979b57/Camostat_Ligand_CID_2536:hmTMPRSS11_A:20230418100237/Camostat_Ligand_CID_2536:hmTMPRSS11_A_out_1.pdbqt
 33 34 0 0 0
SMALL
GASTEIGER

@<TRIPOS>ATOM
      1  O         15.8390    2.7720    6.1740 O.3     1  LIG1       -0.2750
      2  C         14.6520    3.3150    5.7900 C.ar    1  LIG1        0.0790
      3  C         14.6290    4.3650    4.8720 C.ar    1  LIG1        0.0380
      4  C         13.4120    4.9210    4.4790 C.ar    1  LIG1        0.0100
      5  C         12.2170    4.4270    5.0030 C.ar    1  LIG1       -0.0490
      6  C         12.2400    3.3760    5.9210 C.ar    1  LIG1        0.0100
      7  C         13.4580    2.8200    6.3140 C.ar    1  LIG1        0.0380
      8  C         10.9020    5.0270    4.5780 C.3     1  LIG1        0.1490
      9  C          9.9550    4.0110    3.9850 C.2     1  LIG1        0.2630
     10  O         10.2390    3.1990    3.1160 O.2     1  LIG1       -0.2650
     11  O          8.7190    4.1370    4.5740 O.3     1  LIG1       -0.3120
     12  C          7.8340    5.0610    3.9760 C.3     1  LIG1        0.2810
     13  C          7.0640    5.7980    5.0520 C.2     1  LIG1        0.2430
     14  O          7.6800    6.5450    5.8170 O.2     1  LIG1       -0.2710
     15  N          5.6850    5.5920    5.1110 N.am    1  LIG1       -0.3590
     16  C          4.9190    4.7280    4.2150 C.3     1  LIG1        0.1520
     17  C          4.9000    6.2860    6.1230 C.3     1  LIG1        0.1520
     18  C         16.5240    2.1070    5.1540 C.2     1  LIG1        0.2980
     19  O         16.0500    1.2610    4.4120 O.2     1  LIG1       -0.2590
     20  C         17.9400    2.5490    5.0840 C.ar    1  LIG1        0.0400
     21  C         18.3270    3.5030    4.1430 C.ar    1  LIG1        0.0200
     22  C         19.6570    3.9180    4.0770 C.ar    1  LIG1        0.0330
     23  C         20.6000    3.3790    4.9510 C.ar    1  LIG1        0.0750
     24  C         20.2140    2.4250    5.8930 C.ar    1  LIG1        0.0330
     25  C         18.8840    2.0090    5.9580 C.ar    1  LIG1        0.0200
     26  N         21.9340    3.7960    4.8850 N.pl3   1  LIG1       -0.0660
     27  C         22.3380    4.7570    5.6810 C.cat   1  LIG1        0.6920
     28  N         21.5880    5.4390    6.6140 N.pl3   1  LIG1       -0.2330
     29  N         23.6410    5.1950    5.6480 N.pl3   1  LIG1       -0.2330
     30  H         20.6360    5.2190    6.7360 H       1  LIG1        0.1740
     31  H         22.0040    6.1470    7.1580 H       1  LIG1        0.1740
     32  H         24.2820    4.7870    5.0220 H       1  LIG1        0.1740
     33  H         23.9330    5.9170    6.2510 H       1  LIG1        0.1740
@<TRIPOS>BOND
     1    10     9    2
     2    12    11    1
     3    12    13    1
     4     9    11    1
     5     9     8    1
     6    22    21   ar
     7    22    23   ar
     8    21    20   ar
     9    16    15    1
    10    19    18    2
    11     4     3   ar
    12     4     5   ar
    13     8     5    1
    14     3     2   ar
    15    26    23    1
    16    26    27    2
    17    23    24   ar
    18     5     6   ar
    19    32    29    1
    20    13    15   am
    21    13    14    2
    22    20    18    1
    23    20    25   ar
    24    15    17    1
    25    18     1    1
    26    29    27    1
    27    29    33    1
    28    27    28    1
    29     2     1    1
    30     2     7   ar
    31    24    25   ar
    32     6     7   ar
    33    28    30    1
    34    28    31    1
@<TRIPOS>MOLECULE
./../dock_file/temp/2748de4610c9ca1ec09a936055979b57/Camostat_Ligand_CID_2536:hmTMPRSS11_A:20230418100237/Camostat_Ligand_CID_2536:hmTMPRSS11_A_out_1.pdbqt
 33 34 0 0 0
SMALL
GASTEIGER

@<TRIPOS>ATOM
      1  O          9.8580    5.1240    3.4690 O.3     1  LIG1       -0.2750
      2  C         11.2020    5.3380    3.4720 C.ar    1  LIG1        0.0790
      3  C         12.0470    4.4830    2.7640 C.ar    1  LIG1        0.0380
      4  C         13.4230    4.7030    2.7670 C.ar    1  LIG1        0.0100
      5  C         13.9570    5.7790    3.4780 C.ar    1  LIG1       -0.0490
      6  C         13.1120    6.6340    4.1850 C.ar    1  LIG1        0.0100
      7  C         11.7340    6.4140    4.1820 C.ar    1  LIG1        0.0380
      8  C         15.4450    6.0160    3.4810 C.3     1  LIG1        0.1490
      9  C         16.2370    4.7850    3.8540 C.2     1  LIG1        0.2630
     10  O         17.0680    4.2350    3.1440 O.2     1  LIG1       -0.2650
     11  O         15.8820    4.3760    5.1170 O.3     1  LIG1       -0.3120
     12  C         16.2100    3.0450    5.4580 C.3     1  LIG1        0.2810
     13  C         14.9780    2.3350    5.9780 C.2     1  LIG1        0.2430
     14  O         14.2810    2.8990    6.8260 O.2     1  LIG1       -0.2710
     15  N         14.6960    1.0720    5.4550 N.am    1  LIG1       -0.3590
     16  C         15.4880    0.3790    4.4410 C.3     1  LIG1        0.1520
     17  C         13.5170    0.3520    5.9180 C.3     1  LIG1        0.1520
     18  C          9.3270    4.7860    4.7160 C.2     1  LIG1        0.2980
     19  O          9.7920    3.9630    5.4900 O.2     1  LIG1       -0.2590
     20  C          8.0870    5.5540    4.9960 C.ar    1  LIG1        0.0400
     21  C          8.1280    6.6620    5.8420 C.ar    1  LIG1        0.0200
     22  C          6.9630    7.3830    6.1040 C.ar    1  LIG1        0.0330
     23  C          5.7570    6.9950    5.5210 C.ar    1  LIG1        0.0750
     24  C          5.7150    5.8870    4.6750 C.ar    1  LIG1        0.0330
     25  C          6.8800    5.1660    4.4130 C.ar    1  LIG1        0.0200
     26  N          4.5880    7.7190    5.7840 N.pl3   1  LIG1       -0.0660
     27  C          3.7110    7.2220    6.6240 C.cat   1  LIG1        0.6920
     28  N          3.7940    6.0300    7.3100 N.pl3   1  LIG1       -0.2330
     29  N          2.5500    7.9020    6.9090 N.pl3   1  LIG1       -0.2330
     30  H          4.5790    5.4480    7.1920 H       1  LIG1        0.1740
     31  H          3.0670    5.7610    7.9170 H       1  LIG1        0.1740
     32  H          2.3710    8.7700    6.4830 H       1  LIG1        0.1740
     33  H          1.9000    7.5190    7.5420 H       1  LIG1        0.1740
@<TRIPOS>BOND
     1     3     4   ar
     2     3     2   ar
     3     4     5   ar
     4    10     9    2
     5     1     2    1
     6     1    18    1
     7     2     7   ar
     8     5     8    1
     9     5     6   ar
    10     8     9    1
    11     9    11    1
    12     7     6   ar
    13    25    24   ar
    14    25    20   ar
    15    16    15    1
    16    24    23   ar
    17    18    20    1
    18    18    19    2
    19    20    21   ar
    20    11    12    1
    21    15    17    1
    22    15    13   am
    23    12    13    1
    24    23    26    1
    25    23    22   ar
    26    26    27    2
    27    21    22   ar
    28    13    14    2
    29    32    29    1
    30    27    29    1
    31    27    28    1
    32    29    33    1
    33    30    28    1
    34    28    31    1
@<TRIPOS>MOLECULE
./../dock_file/temp/2748de4610c9ca1ec09a936055979b57/Camostat_Ligand_CID_2536:hmTMPRSS11_A:20230418100237/Camostat_Ligand_CID_2536:hmTMPRSS11_A_out_1.pdbqt
 33 34 0 0 0
SMALL
GASTEIGER

@<TRIPOS>ATOM
      1  O         20.0240   20.5190   23.4610 O.3     1  LIG1       -0.2750
      2  C         21.0400   20.1760   22.6230 C.ar    1  LIG1        0.0790
      3  C         22.0320   19.2930   23.0530 C.ar    1  LIG1        0.0380
      4  C         23.0730   18.9420   22.1940 C.ar    1  LIG1        0.0100
      5  C         23.1230   19.4720   20.9040 C.ar    1  LIG1       -0.0490
      6  C         22.1310   20.3550   20.4750 C.ar    1  LIG1        0.0100
      7  C         21.0900   20.7060   21.3340 C.ar    1  LIG1        0.0380
      8  C         24.2470   19.0930   19.9760 C.3     1  LIG1        0.1490
      9  C         23.7620   18.5060   18.6720 C.2     1  LIG1        0.2630
     10  O         23.8210   19.0560   17.5810 O.2     1  LIG1       -0.2650
     11  O         23.2420   17.2530   18.8980 O.3     1  LIG1       -0.3120
     12  C         24.1160   16.3110   19.4820 C.3     1  LIG1        0.2810
     13  C         25.1240   15.8450   18.4520 C.2     1  LIG1        0.2430
     14  O         24.7120   15.3760   17.3880 O.2     1  LIG1       -0.2710
     15  N         26.4770   15.9830   18.7680 N.am    1  LIG1       -0.3590
     16  C         27.0030   16.5460   20.0100 C.3     1  LIG1        0.1520
     17  C         27.4840   15.5570   17.8050 C.3     1  LIG1        0.1520
     18  C         18.9300   19.6510   23.4220 C.2     1  LIG1        0.2980
     19  O         18.9010   18.5190   23.8800 O.2     1  LIG1       -0.2590
     20  C         17.7760   20.2750   22.7260 C.ar    1  LIG1        0.0400
     21  C         17.3400   19.7650   21.5040 C.ar    1  LIG1        0.0200
     22  C         16.2560   20.3510   20.8500 C.ar    1  LIG1        0.0330
     23  C         15.6090   21.4480   21.4180 C.ar    1  LIG1        0.0750
     24  C         16.0450   21.9590   22.6400 C.ar    1  LIG1        0.0330
     25  C         17.1290   21.3730   23.2940 C.ar    1  LIG1        0.0200
     26  N         14.5220   22.0360   20.7620 N.pl3   1  LIG1       -0.0660
     27  C         14.7500   22.9680   19.8680 C.cat   1  LIG1        0.6920
     28  N         15.9730   23.4660   19.4740 N.pl3   1  LIG1       -0.2330
     29  N         13.7090   23.5710   19.2010 N.pl3   1  LIG1       -0.2330
     30  H         16.8000   23.1170   19.8780 H       1  LIG1        0.1740
     31  H         16.0190   24.1720   18.7890 H       1  LIG1        0.1740
     32  H         12.7820   23.3030   19.3920 H       1  LIG1        0.1740
     33  H         13.8930   24.2690   18.5320 H       1  LIG1        0.1740
@<TRIPOS>BOND
     1    14    13    2
     2    10     9    2
     3    17    15    1
     4    13    15   am
     5    13    12    1
     6    33    29    1
     7     9    11    1
     8     9     8    1
     9    15    16    1
    10    31    28    1
    11    11    12    1
    12    29    32    1
    13    29    27    1
    14    28    27    1
    15    28    30    1
    16    27    26    2
    17     8     5    1
    18     6     5   ar
    19     6     7   ar
    20    26    23    1
    21    22    23   ar
    22    22    21   ar
    23     5     4   ar
    24     7     2   ar
    25    23    24   ar
    26    21    20   ar
    27     4     3   ar
    28     2     3   ar
    29     2     1    1
    30    24    25   ar
    31    20    25   ar
    32    20    18    1
    33    18     1    1
    34    18    19    2
@<TRIPOS>MOLECULE
./../dock_file/temp/2748de4610c9ca1ec09a936055979b57/Camostat_Ligand_CID_2536:hmTMPRSS11_A:20230418100237/Camostat_Ligand_CID_2536:hmTMPRSS11_A_out_1.pdbqt
 33 34 0 0 0
SMALL
GASTEIGER

@<TRIPOS>ATOM
      1  O         21.5040   12.9950   26.8420 O.3     1  LIG1       -0.2750
      2  C         21.3600   14.2530   26.3420 C.ar    1  LIG1        0.0790
      3  C         22.4410   15.1350   26.3480 C.ar    1  LIG1        0.0380
      4  C         22.2930   16.4230   25.8360 C.ar    1  LIG1        0.0100
      5  C         21.0640   16.8300   25.3150 C.ar    1  LIG1       -0.0490
      6  C         19.9830   15.9480   25.3080 C.ar    1  LIG1        0.0100
      7  C         20.1310   14.6590   25.8210 C.ar    1  LIG1        0.0380
      8  C         20.9040   18.2220   24.7610 C.3     1  LIG1        0.1490
      9  C         19.7140   18.9520   25.3370 C.2     1  LIG1        0.2630
     10  O         19.5680   19.2520   26.5140 O.2     1  LIG1       -0.2650
     11  O         18.8160   19.2300   24.3330 O.3     1  LIG1       -0.3120
     12  C         19.3590   19.7430   23.1350 C.3     1  LIG1        0.2810
     13  C         18.2380   20.1670   22.2090 C.2     1  LIG1        0.2430
     14  O         17.3470   19.3560   21.9450 O.2     1  LIG1       -0.2710
     15  N         18.2750   21.4700   21.7100 N.am    1  LIG1       -0.3590
     16  C         19.3040   22.4630   22.0110 C.3     1  LIG1        0.1520
     17  C         17.2140   21.9270   20.8220 C.3     1  LIG1        0.1520
     18  C         20.9020   11.9980   26.0710 C.2     1  LIG1        0.2980
     19  O         19.7190   11.6920   26.0980 O.2     1  LIG1       -0.2590
     20  C         21.8960   11.3200   25.2000 C.ar    1  LIG1        0.0400
     21  C         22.6840   10.2910   25.7120 C.ar    1  LIG1        0.0200
     22  C         23.6180    9.6540   24.8940 C.ar    1  LIG1        0.0330
     23  C         23.7640   10.0480   23.5650 C.ar    1  LIG1        0.0750
     24  C         22.9760   11.0790   23.0520 C.ar    1  LIG1        0.0330
     25  C         22.0420   11.7150   23.8700 C.ar    1  LIG1        0.0200
     26  N         24.7010    9.4100   22.7450 N.pl3   1  LIG1       -0.0660
     27  C         25.9420    9.8350   22.7500 C.cat   1  LIG1        0.6920
     28  N         26.4650   10.8730   23.4900 N.pl3   1  LIG1       -0.2330
     29  N         26.8930    9.2350   21.9590 N.pl3   1  LIG1       -0.2330
     30  H         25.8860   11.3860   24.0970 H       1  LIG1        0.1740
     31  H         27.4200   11.1020   23.4090 H       1  LIG1        0.1740
     32  H         26.6460    8.4780   21.3810 H       1  LIG1        0.1740
     33  H         27.8210    9.5630   21.9720 H       1  LIG1        0.1740
@<TRIPOS>BOND
     1    17    15    1
     2    32    29    1
     3    15    16    1
     4    15    13   am
     5    14    13    2
     6    29    33    1
     7    29    27    1
     8    13    12    1
     9    26    27    2
    10    26    23    1
    11    27    28    1
    12    24    23   ar
    13    24    25   ar
    14    12    11    1
    15    31    28    1
    16    28    30    1
    17    23    22   ar
    18    25    20   ar
    19    11     9    1
    20     8     5    1
    21     8     9    1
    22    22    21   ar
    23    20    21   ar
    24    20    18    1
    25     6     5   ar
    26     6     7   ar
    27     5     4   ar
    28     9    10    2
    29     7     2   ar
    30     4     3   ar
    31    18    19    2
    32    18     1    1
    33     2     3   ar
    34     2     1    1
@<TRIPOS>MOLECULE
./../dock_file/temp/2748de4610c9ca1ec09a936055979b57/Camostat_Ligand_CID_2536:hmTMPRSS11_A:20230418100237/Camostat_Ligand_CID_2536:hmTMPRSS11_A_out_1.pdbqt
 33 34 0 0 0
SMALL
GASTEIGER

@<TRIPOS>ATOM
      1  O         10.3440   23.3730   17.3170 O.3     1  LIG1       -0.2750
      2  C          9.8380   22.4470   16.4580 C.ar    1  LIG1        0.0790
      3  C          8.4850   22.4730   16.1200 C.ar    1  LIG1        0.0380
      4  C          7.9670   21.5250   15.2400 C.ar    1  LIG1        0.0100
      5  C          8.8030   20.5490   14.6940 C.ar    1  LIG1       -0.0490
      6  C         10.1560   20.5230   15.0320 C.ar    1  LIG1        0.0100
      7  C         10.6740   21.4730   15.9130 C.ar    1  LIG1        0.0380
      8  C          8.2430   19.5240   13.7430 C.3     1  LIG1        0.1490
      9  C          8.6670   19.7560   12.3110 C.2     1  LIG1        0.2630
     10  O          8.3980   20.7450   11.6440 O.2     1  LIG1       -0.2650
     11  O          9.4050   18.6830   11.8710 O.3     1  LIG1       -0.3120
     12  C         10.4440   18.9710   10.9590 C.3     1  LIG1        0.2810
     13  C         11.6870   19.3870   11.7180 C.2     1  LIG1        0.2430
     14  O         12.1770   18.5990   12.5320 O.2     1  LIG1       -0.2710
     15  N         12.2170   20.6480   11.4410 N.am    1  LIG1       -0.3590
     16  C         11.6750   21.6010   10.4750 C.3     1  LIG1        0.1520
     17  C         13.4170   21.0890   12.1400 C.3     1  LIG1        0.1520
     18  C         10.3620   22.9680   18.6540 C.2     1  LIG1        0.2980
     19  O          9.3830   22.6640   19.3190 O.2     1  LIG1       -0.2590
     20  C         11.7450   22.9630   19.1940 C.ar    1  LIG1        0.0400
     21  C         12.7820   23.5400   18.4610 C.ar    1  LIG1        0.0200
     22  C         14.0810   23.5360   18.9680 C.ar    1  LIG1        0.0330
     23  C         14.3440   22.9550   20.2080 C.ar    1  LIG1        0.0750
     24  C         13.3070   22.3770   20.9420 C.ar    1  LIG1        0.0330
     25  C         12.0080   22.3810   20.4340 C.ar    1  LIG1        0.0200
     26  N         15.6470   22.9510   20.7170 N.pl3   1  LIG1       -0.0660
     27  C         16.3740   21.8670   20.5890 C.cat   1  LIG1        0.6920
     28  N         16.0060   20.6800   19.9930 N.pl3   1  LIG1       -0.2330
     29  N         17.6600   21.8220   21.0750 N.pl3   1  LIG1       -0.2330
     30  H         15.1070   20.5830   19.6050 H       1  LIG1        0.1740
     31  H         16.6420   19.9290   19.9580 H       1  LIG1        0.1740
     32  H         18.0440   22.6090   21.5240 H       1  LIG1        0.1740
     33  H         18.1960   21.0030   20.9730 H       1  LIG1        0.1740
@<TRIPOS>BOND
     1    16    15    1
     2    12    13    1
     3    12    11    1
     4    15    13   am
     5    15    17    1
     6    10     9    2
     7    13    14    2
     8    11     9    1
     9     9     8    1
    10     8     5    1
    11     5     6   ar
    12     5     4   ar
    13     6     7   ar
    14     4     3   ar
    15     7     2   ar
    16     3     2   ar
    17     2     1    1
    18     1    18    1
    19    21    22   ar
    20    21    20   ar
    21    18    20    1
    22    18    19    2
    23    22    23   ar
    24    20    25   ar
    25    30    28    1
    26    31    28    1
    27    28    27    1
    28    23    26    1
    29    23    24   ar
    30    25    24   ar
    31    27    26    2
    32    27    29    1
    33    33    29    1
    34    29    32    1
@<TRIPOS>MOLECULE
./../dock_file/temp/2748de4610c9ca1ec09a936055979b57/Camostat_Ligand_CID_2536:hmTMPRSS11_A:20230418100237/Camostat_Ligand_CID_2536:hmTMPRSS11_A_out_1.pdbqt
 33 34 0 0 0
SMALL
GASTEIGER

@<TRIPOS>ATOM
      1  O          9.2930    4.4510    5.3700 O.3     1  LIG1       -0.2750
      2  C          8.9450    5.6320    4.7910 C.ar    1  LIG1        0.0790
      3  C          9.0290    5.7820    3.4060 C.ar    1  LIG1        0.0380
      4  C          8.6720    6.9920    2.8130 C.ar    1  LIG1        0.0100
      5  C          8.2290    8.0530    3.6040 C.ar    1  LIG1       -0.0490
      6  C          8.1440    7.9020    4.9880 C.ar    1  LIG1        0.0100
      7  C          8.5020    6.6910    5.5810 C.ar    1  LIG1        0.0380
      8  C          7.8420    9.3610    2.9630 C.3     1  LIG1        0.1490
      9  C          8.7610   10.4980    3.3450 C.2     1  LIG1        0.2630
     10  O          8.4780   11.4130    4.1050 O.2     1  LIG1       -0.2650
     11  O          9.9690   10.3460    2.7060 O.3     1  LIG1       -0.3120
     12  C         11.1060   10.2450    3.5370 C.3     1  LIG1        0.2810
     13  C         12.1110    9.3000    2.9120 C.2     1  LIG1        0.2430
     14  O         11.9820    8.0870    3.0990 O.2     1  LIG1       -0.2710
     15  N         13.1320    9.8630    2.1460 N.am    1  LIG1       -0.3590
     16  C         13.3100   11.2910    1.8900 C.3     1  LIG1        0.1520
     17  C         14.1180    8.9940    1.5170 C.3     1  LIG1        0.1520
     18  C         10.0110    3.5910    4.5350 C.2     1  LIG1        0.2980
     19  O          9.5360    2.8900    3.6550 O.2     1  LIG1       -0.2590
     20  C         11.4600    3.6150    4.8610 C.ar    1  LIG1        0.0400
     21  C         11.9050    3.1480    6.0970 C.ar    1  LIG1        0.0200
     22  C         13.2660    3.1700    6.4030 C.ar    1  LIG1        0.0330
     23  C         14.1820    3.6600    5.4720 C.ar    1  LIG1        0.0750
     24  C         13.7370    4.1270    4.2350 C.ar    1  LIG1        0.0330
     25  C         12.3770    4.1050    3.9300 C.ar    1  LIG1        0.0200
     26  N         15.5470    3.6820    5.7790 N.pl3   1  LIG1       -0.0660
     27  C         16.2270    2.5620    5.7250 C.cat   1  LIG1        0.6920
     28  N         15.7510    1.3120    5.3900 N.pl3   1  LIG1       -0.2330
     29  N         17.5700    2.5410    6.0180 N.pl3   1  LIG1       -0.2330
     30  H         14.8030    1.1920    5.1590 H       1  LIG1        0.1740
     31  H         16.3620    0.5390    5.3850 H       1  LIG1        0.1740
     32  H         18.0310    3.3720    6.2720 H       1  LIG1        0.1740
     33  H         18.0700    1.6940    5.9730 H       1  LIG1        0.1740
@<TRIPOS>BOND
     1    17    15    1
     2    16    15    1
     3    15    13   am
     4    11     9    1
     5    11    12    1
     6     4     3   ar
     7     4     5   ar
     8    13    14    2
     9    13    12    1
    10     8     9    1
    11     8     5    1
    12     9    10    2
    13     3     2   ar
    14     5     6   ar
    15    19    18    2
    16    25    24   ar
    17    25    20   ar
    18    24    23   ar
    19    18    20    1
    20    18     1    1
    21     2     1    1
    22     2     7   ar
    23    20    21   ar
    24     6     7   ar
    25    30    28    1
    26    31    28    1
    27    28    27    1
    28    23    26    1
    29    23    22   ar
    30    27    26    2
    31    27    29    1
    32    33    29    1
    33    29    32    1
    34    21    22   ar
@<TRIPOS>MOLECULE
./../dock_file/temp/2748de4610c9ca1ec09a936055979b57/Camostat_Ligand_CID_2536:hmTMPRSS11_A:20230418100237/Camostat_Ligand_CID_2536:hmTMPRSS11_A_out_1.pdbqt
 33 34 0 0 0
SMALL
GASTEIGER

@<TRIPOS>ATOM
      1  O         15.8610    3.2530    5.3930 O.3     1  LIG1       -0.2750
      2  C         15.9320    4.2970    4.5230 C.ar    1  LIG1        0.0790
      3  C         15.1630    5.4410    4.7400 C.ar    1  LIG1        0.0380
      4  C         15.2360    6.5100    3.8480 C.ar    1  LIG1        0.0100
      5  C         16.0800    6.4380    2.7390 C.ar    1  LIG1       -0.0490
      6  C         16.8490    5.2940    2.5230 C.ar    1  LIG1        0.0100
      7  C         16.7760    4.2240    3.4150 C.ar    1  LIG1        0.0380
      8  C         16.1600    7.5930    1.7760 C.3     1  LIG1        0.1490
      9  C         16.1600    8.9370    2.4660 C.2     1  LIG1        0.2630
     10  O         17.0530    9.3640    3.1840 O.2     1  LIG1       -0.2650
     11  O         15.0000    9.6100    2.1620 O.3     1  LIG1       -0.3120
     12  C         14.1600    9.9290    3.2510 C.3     1  LIG1        0.2810
     13  C         13.8940   11.4190    3.2690 C.2     1  LIG1        0.2430
     14  O         14.8460   12.1910    3.4150 O.2     1  LIG1       -0.2710
     15  N         12.5720   11.8380    3.1090 N.am    1  LIG1       -0.3590
     16  C         11.4220   10.9570    2.9190 C.3     1  LIG1        0.1520
     17  C         12.2670   13.2630    3.1110 C.3     1  LIG1        0.1520
     18  C         15.0100    2.2230    4.9860 C.2     1  LIG1        0.2980
     19  O         15.3600    1.1080    4.6300 O.2     1  LIG1       -0.2590
     20  C         13.5900    2.6560    5.0200 C.ar    1  LIG1        0.0400
     21  C         12.9490    2.8480    6.2430 C.ar    1  LIG1        0.0200
     22  C         11.6150    3.2560    6.2750 C.ar    1  LIG1        0.0330
     23  C         10.9220    3.4710    5.0840 C.ar    1  LIG1        0.0750
     24  C         11.5630    3.2780    3.8600 C.ar    1  LIG1        0.0330
     25  C         12.8970    2.8710    3.8280 C.ar    1  LIG1        0.0200
     26  N          9.5850    3.8790    5.1170 N.pl3   1  LIG1       -0.0660
     27  C          9.3150    5.1590    5.2150 C.cat   1  LIG1        0.6920
     28  N         10.2170    6.1980    5.2940 N.pl3   1  LIG1       -0.2330
     29  N          8.0140    5.6020    5.2500 N.pl3   1  LIG1       -0.2330
     30  H         11.1830    6.0140    5.2800 H       1  LIG1        0.1740
     31  H          9.8930    7.1260    5.3660 H       1  LIG1        0.1740
     32  H          7.2730    4.9570    5.2000 H       1  LIG1        0.1740
     33  H          7.8240    6.5660    5.3230 H       1  LIG1        0.1740
@<TRIPOS>BOND
     1     8     9    1
     2     8     5    1
     3    11     9    1
     4    11    12    1
     5     9    10    2
     6     6     5   ar
     7     6     7   ar
     8     5     4   ar
     9    16    15    1
    10    15    17    1
    11    15    13   am
    12    12    13    1
    13    13    14    2
    14     7     2   ar
    15    25    24   ar
    16    25    20   ar
    17     4     3   ar
    18    24    23   ar
    19     2     3   ar
    20     2     1    1
    21    19    18    2
    22    18    20    1
    23    18     1    1
    24    20    21   ar
    25    23    26    1
    26    23    22   ar
    27    26    27    2
    28    32    29    1
    29    27    29    1
    30    27    28    1
    31    29    33    1
    32    30    28    1
    33    28    31    1
    34    21    22   ar
