@<TRIPOS>MOLECULE
./../dock_file/temp/2748de4610c9ca1ec09a936055979b57/Camostat_Ligand_CID_2536:hmTMPRSS11_A:20230418100237/Camostat_Ligand_CID_2536:hmTMPRSS11_A_out_2.pdbqt
 33 34 0 0 0
SMALL
GASTEIGER

@<TRIPOS>ATOM
      1  O         -2.3390  -14.3160   16.2070 O.3     1  LIG1       -0.2750
      2  C         -3.1280  -13.3890   16.8140 C.ar    1  LIG1        0.0790
      3  C         -3.1470  -13.2910   18.2060 C.ar    1  LIG1        0.0380
      4  C         -3.9560  -12.3410   18.8280 C.ar    1  LIG1        0.0100
      5  C         -4.7460  -11.4860   18.0580 C.ar    1  LIG1       -0.0490
      6  C         -4.7270  -11.5840   16.6670 C.ar    1  LIG1        0.0100
      7  C         -3.9180  -12.5350   16.0450 C.ar    1  LIG1        0.0380
      8  C         -5.6200  -10.4590   18.7300 C.3     1  LIG1        0.1490
      9  C         -6.8750  -10.1510   17.9470 C.2     1  LIG1        0.2630
     10  O         -7.0800   -9.1260   17.3120 O.2     1  LIG1       -0.2650
     11  O         -7.7540  -11.2030   18.0560 O.3     1  LIG1       -0.3120
     12  C         -9.1000  -10.8660   18.3210 C.3     1  LIG1        0.2810
     13  C         -9.2570  -10.5110   19.7850 C.2     1  LIG1        0.2430
     14  O         -8.9220  -11.3390   20.6360 O.2     1  LIG1       -0.2710
     15  N         -9.7700   -9.2490   20.0880 N.am    1  LIG1       -0.3590
     16  C        -10.1640   -8.2370   19.1100 C.3     1  LIG1        0.1520
     17  C         -9.9320   -8.8580   21.4820 C.3     1  LIG1        0.1520
     18  C         -1.0160  -13.9090   16.0170 C.2     1  LIG1        0.2980
     19  O         -0.6600  -12.8620   15.4980 O.2     1  LIG1       -0.2590
     20  C         -0.0630  -14.9320   16.5190 C.ar    1  LIG1        0.0400
     21  C          0.5800  -15.7850   15.6240 C.ar    1  LIG1        0.0200
     22  C          1.4750  -16.7450   16.0950 C.ar    1  LIG1        0.0330
     23  C          1.7260  -16.8530   17.4630 C.ar    1  LIG1        0.0750
     24  C          1.0820  -16.0000   18.3600 C.ar    1  LIG1        0.0330
     25  C          0.1870  -15.0400   17.8880 C.ar    1  LIG1        0.0200
     26  N          2.6230  -17.8170   17.9360 N.pl3   1  LIG1       -0.0660
     27  C          2.1780  -19.0210   18.2020 C.cat   1  LIG1        0.6920
     28  N          0.8850  -19.4810   18.0710 N.pl3   1  LIG1       -0.2330
     29  N          3.0270  -19.9970   18.6680 N.pl3   1  LIG1       -0.2330
     30  H          0.1790  -18.8780   17.7460 H       1  LIG1        0.1740
     31  H          0.6690  -20.4130   18.3040 H       1  LIG1        0.1740
     32  H          3.9800  -19.7950   18.8050 H       1  LIG1        0.1740
     33  H          2.6810  -20.8970   18.8640 H       1  LIG1        0.1740
@<TRIPOS>BOND
     1    19    18    2
     2    21    22   ar
     3    21    20   ar
     4    18     1    1
     5    18    20    1
     6     7     6   ar
     7     7     2   ar
     8    22    23   ar
     9     1     2    1
    10    20    25   ar
    11     6     5   ar
    12     2     3   ar
    13    10     9    2
    14    23    26    1
    15    23    24   ar
    16    30    28    1
    17    25    24   ar
    18    26    27    2
    19     9    11    1
    20     9     8    1
    21    11    12    1
    22     5     8    1
    23     5     4   ar
    24    28    27    1
    25    28    31    1
    26    27    29    1
    27     3     4   ar
    28    12    13    1
    29    29    32    1
    30    29    33    1
    31    16    15    1
    32    13    15   am
    33    13    14    2
    34    15    17    1
@<TRIPOS>MOLECULE
./../dock_file/temp/2748de4610c9ca1ec09a936055979b57/Camostat_Ligand_CID_2536:hmTMPRSS11_A:20230418100237/Camostat_Ligand_CID_2536:hmTMPRSS11_A_out_2.pdbqt
 33 34 0 0 0
SMALL
GASTEIGER

@<TRIPOS>ATOM
      1  O         -1.4720  -14.4010   16.2060 O.3     1  LIG1       -0.2750
      2  C         -0.3870  -15.1530   16.5360 C.ar    1  LIG1        0.0790
      3  C          0.2340  -15.9450   15.5700 C.ar    1  LIG1        0.0380
      4  C          1.3450  -16.7150   15.9090 C.ar    1  LIG1        0.0100
      5  C          1.8390  -16.6930   17.2140 C.ar    1  LIG1       -0.0490
      6  C          1.2180  -15.9010   18.1800 C.ar    1  LIG1        0.0100
      7  C          0.1050  -15.1300   17.8410 C.ar    1  LIG1        0.0380
      8  C          3.0400  -17.5250   17.5800 C.3     1  LIG1        0.1490
      9  C          2.6930  -18.9680   17.8640 C.2     1  LIG1        0.2630
     10  O          2.7430  -19.8810   17.0520 O.2     1  LIG1       -0.2650
     11  O          2.3130  -19.0990   19.1780 O.3     1  LIG1       -0.3120
     12  C          1.1310  -19.8350   19.4160 C.3     1  LIG1        0.2810
     13  C          0.0630  -18.9170   19.9730 C.2     1  LIG1        0.2430
     14  O          0.1560  -18.5400   21.1450 O.2     1  LIG1       -0.2710
     15  N         -0.9710  -18.5400   19.1150 N.am    1  LIG1       -0.3590
     16  C         -1.1070  -18.9520   17.7200 C.3     1  LIG1        0.1520
     17  C         -2.0180  -17.6510   19.6030 C.3     1  LIG1        0.1520
     18  C         -2.6630  -14.8140   16.8100 C.2     1  LIG1        0.2980
     19  O         -3.1620  -15.9250   16.7150 O.2     1  LIG1       -0.2590
     20  C         -3.2780  -13.7110   17.5900 C.ar    1  LIG1        0.0400
     21  C         -3.2440  -12.4060   17.0990 C.ar    1  LIG1        0.0200
     22  C         -3.8230  -11.3700   17.8320 C.ar    1  LIG1        0.0330
     23  C         -4.4350  -11.6380   19.0560 C.ar    1  LIG1        0.0750
     24  C         -4.4690  -12.9430   19.5480 C.ar    1  LIG1        0.0330
     25  C         -3.8900  -13.9790   18.8150 C.ar    1  LIG1        0.0200
     26  N         -5.0150  -10.5980   19.7910 N.pl3   1  LIG1       -0.0660
     27  C         -6.2660  -10.2800   19.5600 C.cat   1  LIG1        0.6920
     28  N         -7.1200  -10.8610   18.6480 N.pl3   1  LIG1       -0.2330
     29  N         -6.8730   -9.2650   20.2610 N.pl3   1  LIG1       -0.2330
     30  H         -6.8060  -11.6020   18.0810 H       1  LIG1        0.1740
     31  H         -8.0450  -10.5340   18.5630 H       1  LIG1        0.1740
     32  H         -6.3690   -8.7690   20.9450 H       1  LIG1        0.1740
     33  H         -7.8130   -9.0360   20.0780 H       1  LIG1        0.1740
@<TRIPOS>BOND
     1     3     4   ar
     2     3     2   ar
     3     4     5   ar
     4     1     2    1
     5     1    18    1
     6     2     7   ar
     7    19    18    2
     8    18    20    1
     9    10     9    2
    10    21    20   ar
    11    21    22   ar
    12     5     8    1
    13     5     6   ar
    14     8     9    1
    15    20    25   ar
    16    16    15    1
    17    22    23   ar
    18     7     6   ar
    19     9    11    1
    20    30    28    1
    21    31    28    1
    22    28    27    1
    23    25    24   ar
    24    23    24   ar
    25    23    26    1
    26    15    17    1
    27    15    13   am
    28    11    12    1
    29    12    13    1
    30    27    26    2
    31    27    29    1
    32    13    14    2
    33    33    29    1
    34    29    32    1
@<TRIPOS>MOLECULE
./../dock_file/temp/2748de4610c9ca1ec09a936055979b57/Camostat_Ligand_CID_2536:hmTMPRSS11_A:20230418100237/Camostat_Ligand_CID_2536:hmTMPRSS11_A_out_2.pdbqt
 33 34 0 0 0
SMALL
GASTEIGER

@<TRIPOS>ATOM
      1  O         -0.8790  -14.3980   18.5640 O.3     1  LIG1       -0.2750
      2  C         -0.0920  -15.1780   17.7730 C.ar    1  LIG1        0.0790
      3  C          0.9000  -15.9750   18.3440 C.ar    1  LIG1        0.0380
      4  C          1.7050  -16.7740   17.5330 C.ar    1  LIG1        0.0100
      5  C          1.5180  -16.7780   16.1510 C.ar    1  LIG1       -0.0490
      6  C          0.5250  -15.9810   15.5800 C.ar    1  LIG1        0.0100
      7  C         -0.2800  -15.1810   16.3910 C.ar    1  LIG1        0.0380
      8  C          2.3880  -17.6410   15.2740 C.3     1  LIG1        0.1490
      9  C          1.9010  -19.0690   15.1840 C.2     1  LIG1        0.2630
     10  O          0.8890  -19.4370   14.6040 O.2     1  LIG1       -0.2650
     11  O          2.7720  -19.8940   15.8560 O.3     1  LIG1       -0.3120
     12  C          2.1990  -20.7590   16.8140 C.3     1  LIG1        0.2810
     13  C          2.3630  -20.1660   18.1970 C.2     1  LIG1        0.2430
     14  O          3.4840  -19.7950   18.5560 O.2     1  LIG1       -0.2710
     15  N          1.2200  -20.0640   18.9920 N.am    1  LIG1       -0.3590
     16  C         -0.1250  -20.4780   18.5980 C.3     1  LIG1        0.1520
     17  C          1.3260  -19.4920   20.3280 C.3     1  LIG1        0.1520
     18  C         -2.2250  -14.7700   18.5810 C.2     1  LIG1        0.2980
     19  O         -2.6480  -15.9160   18.5930 O.2     1  LIG1       -0.2590
     20  C         -3.1100  -13.5770   18.5660 C.ar    1  LIG1        0.0400
     21  C         -3.9990  -13.3550   19.6170 C.ar    1  LIG1        0.0200
     22  C         -4.8300  -12.2350   19.6030 C.ar    1  LIG1        0.0330
     23  C         -4.7720  -11.3370   18.5370 C.ar    1  LIG1        0.0750
     24  C         -3.8830  -11.5580   17.4860 C.ar    1  LIG1        0.0330
     25  C         -3.0520  -12.6790   17.4990 C.ar    1  LIG1        0.0200
     26  N         -5.6050  -10.2130   18.5240 N.pl3   1  LIG1       -0.0660
     27  C         -6.7530  -10.2830   17.8930 C.cat   1  LIG1        0.6920
     28  N         -7.2670  -11.3660   17.2130 N.pl3   1  LIG1       -0.2330
     29  N         -7.6010   -9.2010   17.8560 N.pl3   1  LIG1       -0.2330
     30  H         -6.7560  -12.2040   17.1640 H       1  LIG1        0.1740
     31  H         -8.1470  -11.2980   16.7750 H       1  LIG1        0.1740
     32  H         -7.3490   -8.3630   18.3060 H       1  LIG1        0.1740
     33  H         -8.4600   -9.2660   17.3800 H       1  LIG1        0.1740
@<TRIPOS>BOND
     1    10     9    2
     2     9     8    1
     3     9    11    1
     4     8     5    1
     5     6     5   ar
     6     6     7   ar
     7    11    12    1
     8     5     4   ar
     9     7     2   ar
    10    31    28    1
    11    12    13    1
    12    30    28    1
    13    28    27    1
    14    33    29    1
    15    24    25   ar
    16    24    23   ar
    17    25    20   ar
    18     4     3   ar
    19     2     3   ar
    20     2     1    1
    21    29    27    1
    22    29    32    1
    23    27    26    2
    24    13    14    2
    25    13    15   am
    26    26    23    1
    27    23    22   ar
    28     1    18    1
    29    20    18    1
    30    20    21   ar
    31    18    19    2
    32    16    15    1
    33    15    17    1
    34    22    21   ar
@<TRIPOS>MOLECULE
./../dock_file/temp/2748de4610c9ca1ec09a936055979b57/Camostat_Ligand_CID_2536:hmTMPRSS11_A:20230418100237/Camostat_Ligand_CID_2536:hmTMPRSS11_A_out_2.pdbqt
 33 34 0 0 0
SMALL
GASTEIGER

@<TRIPOS>ATOM
      1  O         -3.8600  -14.3830   20.0650 O.3     1  LIG1       -0.2750
      2  C         -2.9110  -14.5140   19.0980 C.ar    1  LIG1        0.0790
      3  C         -3.2080  -14.1740   17.7780 C.ar    1  LIG1        0.0380
      4  C         -2.2360  -14.3080   16.7880 C.ar    1  LIG1        0.0100
      5  C         -0.9650  -14.7810   17.1170 C.ar    1  LIG1       -0.0490
      6  C         -0.6680  -15.1210   18.4370 C.ar    1  LIG1        0.0100
      7  C         -1.6410  -14.9870   19.4280 C.ar    1  LIG1        0.0380
      8  C          0.0860  -14.9260   16.0470 C.3     1  LIG1        0.1490
      9  C          0.2750  -16.3560   15.5980 C.2     1  LIG1        0.2630
     10  O         -0.6250  -17.1490   15.3570 O.2     1  LIG1       -0.2650
     11  O          1.6190  -16.6320   15.4980 O.3     1  LIG1       -0.3120
     12  C          2.2610  -17.0430   16.6860 C.3     1  LIG1        0.2810
     13  C          2.4240  -18.5480   16.6830 C.2     1  LIG1        0.2430
     14  O          3.2370  -19.0550   15.9050 O.2     1  LIG1       -0.2710
     15  N          1.6430  -19.2810   17.5760 N.am    1  LIG1       -0.3590
     16  C          0.6820  -18.7170   18.5210 C.3     1  LIG1        0.1520
     17  C          1.7710  -20.7330   17.6150 C.3     1  LIG1        0.1520
     18  C         -3.8180  -13.1670   20.7510 C.2     1  LIG1        0.2980
     19  O         -3.0230  -12.8720   21.6310 O.2     1  LIG1       -0.2590
     20  C         -4.8910  -12.2520   20.2850 C.ar    1  LIG1        0.0400
     21  C         -6.2100  -12.4670   20.6820 C.ar    1  LIG1        0.0200
     22  C         -7.2190  -11.6070   20.2450 C.ar    1  LIG1        0.0330
     23  C         -6.9080  -10.5340   19.4110 C.ar    1  LIG1        0.0750
     24  C         -5.5880  -10.3200   19.0130 C.ar    1  LIG1        0.0330
     25  C         -4.5800  -11.1790   19.4500 C.ar    1  LIG1        0.0200
     26  N         -7.9190   -9.6730   18.9720 N.pl3   1  LIG1       -0.0660
     27  C         -8.1600   -8.5790   19.6550 C.cat   1  LIG1        0.6920
     28  N         -7.5200   -8.1510   20.7980 N.pl3   1  LIG1       -0.2330
     29  N         -9.1450   -7.7060   19.2580 N.pl3   1  LIG1       -0.2330
     30  H         -6.7940   -8.6890   21.1860 H       1  LIG1        0.1740
     31  H         -7.7910   -7.3060   21.2260 H       1  LIG1        0.1740
     32  H         -9.6780   -7.8980   18.4530 H       1  LIG1        0.1740
     33  H         -9.3170   -6.8880   19.7790 H       1  LIG1        0.1740
@<TRIPOS>BOND
     1    10     9    2
     2    11     9    1
     3    11    12    1
     4     9     8    1
     5    14    13    2
     6     8     5    1
     7    13    12    1
     8    13    15   am
     9     4     5   ar
    10     4     3   ar
    11     5     6   ar
    12    15    17    1
    13    15    16    1
    14     3     2   ar
    15     6     7   ar
    16    32    29    1
    17    26    23    1
    18    26    27    2
    19    24    23   ar
    20    24    25   ar
    21     2     7   ar
    22     2     1    1
    23    29    27    1
    24    29    33    1
    25    23    22   ar
    26    25    20   ar
    27    27    28    1
    28     1    18    1
    29    22    21   ar
    30    20    21   ar
    31    20    18    1
    32    18    19    2
    33    28    30    1
    34    28    31    1
@<TRIPOS>MOLECULE
./../dock_file/temp/2748de4610c9ca1ec09a936055979b57/Camostat_Ligand_CID_2536:hmTMPRSS11_A:20230418100237/Camostat_Ligand_CID_2536:hmTMPRSS11_A_out_2.pdbqt
 33 34 0 0 0
SMALL
GASTEIGER

@<TRIPOS>ATOM
      1  O         -5.2180  -13.2240   16.2300 O.3     1  LIG1       -0.2750
      2  C         -4.2550  -13.8170   16.9870 C.ar    1  LIG1        0.0790
      3  C         -2.9080  -13.5580   16.7320 C.ar    1  LIG1        0.0380
      4  C         -1.9220  -14.1650   17.5070 C.ar    1  LIG1        0.0100
      5  C         -2.2810  -15.0310   18.5410 C.ar    1  LIG1       -0.0490
      6  C         -3.6280  -15.2900   18.7960 C.ar    1  LIG1        0.0100
      7  C         -4.6150  -14.6830   18.0200 C.ar    1  LIG1        0.0380
      8  C         -1.2160  -15.6880   19.3790 C.3     1  LIG1        0.1490
      9  C          0.1840  -15.3640   18.9120 C.2     1  LIG1        0.2630
     10  O          0.8960  -14.4780   19.3660 O.2     1  LIG1       -0.2650
     11  O          0.5390  -16.2200   17.8960 O.3     1  LIG1       -0.3120
     12  C          1.2090  -17.4010   18.2810 C.3     1  LIG1        0.2810
     13  C          2.3800  -17.6480   17.3530 C.2     1  LIG1        0.2430
     14  O          3.4900  -17.2130   17.6700 O.2     1  LIG1       -0.2710
     15  N          2.1320  -18.3690   16.1840 N.am    1  LIG1       -0.3590
     16  C          0.8370  -18.9130   15.7830 C.3     1  LIG1        0.1520
     17  C          3.2300  -18.6390   15.2640 C.3     1  LIG1        0.1520
     18  C         -5.1850  -11.8280   16.2470 C.2     1  LIG1        0.2980
     19  O         -4.7230  -11.1150   15.3690 O.2     1  LIG1       -0.2590
     20  C         -5.7780  -11.2940   17.5000 C.ar    1  LIG1        0.0400
     21  C         -4.9520  -10.9250   18.5610 C.ar    1  LIG1        0.0200
     22  C         -5.5090  -10.4230   19.7370 C.ar    1  LIG1        0.0330
     23  C         -6.8930  -10.2910   19.8520 C.ar    1  LIG1        0.0750
     24  C         -7.7200  -10.6600   18.7910 C.ar    1  LIG1        0.0330
     25  C         -7.1630  -11.1620   17.6150 C.ar    1  LIG1        0.0200
     26  N         -7.4520   -9.7870   21.0320 N.pl3   1  LIG1       -0.0660
     27  C         -7.7670   -8.5160   21.0910 C.cat   1  LIG1        0.6920
     28  N         -7.6130   -7.5700   20.1000 N.pl3   1  LIG1       -0.2330
     29  N         -8.3190   -7.9820   22.2320 N.pl3   1  LIG1       -0.2330
     30  H         -7.2280   -7.8260   19.2320 H       1  LIG1        0.1740
     31  H         -7.8880   -6.6380   20.2630 H       1  LIG1        0.1740
     32  H         -8.4820   -8.5550   23.0150 H       1  LIG1        0.1740
     33  H         -8.5520   -7.0250   22.2640 H       1  LIG1        0.1740
@<TRIPOS>BOND
     1    17    15    1
     2    19    18    2
     3    16    15    1
     4    15    13   am
     5     1    18    1
     6     1     2    1
     7    18    20    1
     8     3     2   ar
     9     3     4   ar
    10     2     7   ar
    11    13    14    2
    12    13    12    1
    13    20    25   ar
    14    20    21   ar
    15     4     5   ar
    16    25    24   ar
    17    11    12    1
    18    11     9    1
    19     7     6   ar
    20     5     6   ar
    21     5     8    1
    22    21    22   ar
    23    24    23   ar
    24     9    10    2
    25     9     8    1
    26    30    28    1
    27    22    23   ar
    28    23    26    1
    29    28    31    1
    30    28    27    1
    31    26    27    2
    32    27    29    1
    33    29    33    1
    34    29    32    1
@<TRIPOS>MOLECULE
./../dock_file/temp/2748de4610c9ca1ec09a936055979b57/Camostat_Ligand_CID_2536:hmTMPRSS11_A:20230418100237/Camostat_Ligand_CID_2536:hmTMPRSS11_A_out_2.pdbqt
 33 34 0 0 0
SMALL
GASTEIGER

@<TRIPOS>ATOM
      1  O         -2.2860  -13.9160   18.3690 O.3     1  LIG1       -0.2750
      2  C         -1.3700  -14.9220   18.3910 C.ar    1  LIG1        0.0790
      3  C         -1.7880  -16.2500   18.2930 C.ar    1  LIG1        0.0380
      4  C         -0.8500  -17.2800   18.3160 C.ar    1  LIG1        0.0100
      5  C          0.5080  -16.9850   18.4360 C.ar    1  LIG1       -0.0490
      6  C          0.9270  -15.6580   18.5350 C.ar    1  LIG1        0.0100
      7  C         -0.0120  -14.6260   18.5120 C.ar    1  LIG1        0.0380
      8  C          1.5230  -18.0980   18.4610 C.3     1  LIG1        0.1490
      9  C          2.5890  -17.9480   17.4010 C.2     1  LIG1        0.2630
     10  O          3.7110  -17.4960   17.5840 O.2     1  LIG1       -0.2650
     11  O          2.1050  -18.3990   16.1960 O.3     1  LIG1       -0.3120
     12  C          2.1630  -17.4870   15.1190 C.3     1  LIG1        0.2810
     13  C          0.7620  -17.1860   14.6300 C.2     1  LIG1        0.2430
     14  O          0.1710  -16.2050   15.0890 O.2     1  LIG1       -0.2710
     15  N          0.2180  -18.0420   13.6710 N.am    1  LIG1       -0.3590
     16  C          0.8910  -19.2030   13.0940 C.3     1  LIG1        0.1520
     17  C         -1.1240  -17.7880   13.1640 C.3     1  LIG1        0.1520
     18  C         -2.6510  -13.5000   17.0860 C.2     1  LIG1        0.2980
     19  O         -2.1320  -13.8670   16.0430 O.2     1  LIG1       -0.2590
     20  C         -3.7650  -12.5180   17.1390 C.ar    1  LIG1        0.0400
     21  C         -4.5370  -12.2790   16.0030 C.ar    1  LIG1        0.0200
     22  C         -5.5830  -11.3580   16.0530 C.ar    1  LIG1        0.0330
     23  C         -5.8560  -10.6750   17.2370 C.ar    1  LIG1        0.0750
     24  C         -5.0830  -10.9140   18.3740 C.ar    1  LIG1        0.0330
     25  C         -4.0370  -11.8350   18.3250 C.ar    1  LIG1        0.0200
     26  N         -6.9050   -9.7510   17.2870 N.pl3   1  LIG1       -0.0660
     27  C         -8.0770  -10.1450   17.7260 C.cat   1  LIG1        0.6920
     28  N         -8.4240  -11.4050   18.1640 N.pl3   1  LIG1       -0.2330
     29  N         -9.1340   -9.2670   17.7910 N.pl3   1  LIG1       -0.2330
     30  H         -7.7550  -12.1260   18.1670 H       1  LIG1        0.1740
     31  H         -9.3420  -11.5830   18.4720 H       1  LIG1        0.1740
     32  H         -9.0160   -8.3330   17.5060 H       1  LIG1        0.1740
     33  H        -10.0080   -9.5750   18.1230 H       1  LIG1        0.1740
@<TRIPOS>BOND
     1    16    15    1
     2    17    15    1
     3    15    13   am
     4    13    14    2
     5    13    12    1
     6    12    11    1
     7    21    22   ar
     8    21    20   ar
     9    19    18    2
    10    22    23   ar
    11    11     9    1
    12    18    20    1
    13    18     1    1
    14    20    25   ar
    15    23    26    1
    16    23    24   ar
    17    26    27    2
    18     9    10    2
    19     9     8    1
    20    32    29    1
    21    27    29    1
    22    27    28    1
    23    29    33    1
    24    28    30    1
    25    28    31    1
    26     3     4   ar
    27     3     2   ar
    28     4     5   ar
    29    25    24   ar
    30     1     2    1
    31     2     7   ar
    32     5     8    1
    33     5     6   ar
    34     7     6   ar
@<TRIPOS>MOLECULE
./../dock_file/temp/2748de4610c9ca1ec09a936055979b57/Camostat_Ligand_CID_2536:hmTMPRSS11_A:20230418100237/Camostat_Ligand_CID_2536:hmTMPRSS11_A_out_2.pdbqt
 33 34 0 0 0
SMALL
GASTEIGER

@<TRIPOS>ATOM
      1  O         -4.8810    6.7110   14.4390 O.3     1  LIG1       -0.2750
      2  C         -5.4690    6.2600   15.5800 C.ar    1  LIG1        0.0790
      3  C         -6.8590    6.2440   15.6910 C.ar    1  LIG1        0.0380
      4  C         -7.4600    5.7810   16.8610 C.ar    1  LIG1        0.0100
      5  C         -6.6720    5.3330   17.9210 C.ar    1  LIG1       -0.0490
      6  C         -5.2810    5.3500   17.8100 C.ar    1  LIG1        0.0100
      7  C         -4.6800    5.8120   16.6400 C.ar    1  LIG1        0.0380
      8  C         -7.3210    4.8340   19.1850 C.3     1  LIG1        0.1490
      9  C         -8.7850    4.5060   19.0060 C.2     1  LIG1        0.2630
     10  O         -9.7180    5.1650   19.4430 O.2     1  LIG1       -0.2650
     11  O         -8.9090    3.3490   18.2730 O.3     1  LIG1       -0.3120
     12  C        -10.0650    3.2400   17.4700 C.3     1  LIG1        0.2810
     13  C        -10.6080    1.8280   17.5460 C.2     1  LIG1        0.2430
     14  O         -9.9180    0.9030   17.1090 O.2     1  LIG1       -0.2710
     15  N        -11.8670    1.6540   18.1210 N.am    1  LIG1       -0.3590
     16  C        -12.7060    2.7210   18.6620 C.3     1  LIG1        0.1520
     17  C        -12.4270    0.3130   18.2250 C.3     1  LIG1        0.1520
     18  C         -4.0290    5.7880   13.8270 C.2     1  LIG1        0.2980
     19  O         -2.8180    5.9030   13.7140 O.2     1  LIG1       -0.2590
     20  C         -4.7870    4.6250   13.3010 C.ar    1  LIG1        0.0400
     21  C         -5.6720    4.7930   12.2370 C.ar    1  LIG1        0.0200
     22  C         -6.3840    3.7000   11.7430 C.ar    1  LIG1        0.0330
     23  C         -6.2130    2.4390   12.3130 C.ar    1  LIG1        0.0750
     24  C         -5.3280    2.2710   13.3780 C.ar    1  LIG1        0.0330
     25  C         -4.6150    3.3630   13.8730 C.ar    1  LIG1        0.0200
     26  N         -6.9270    1.3440   11.8170 N.pl3   1  LIG1       -0.0660
     27  C         -6.3180    0.4970   11.0220 C.cat   1  LIG1        0.6920
     28  N         -5.0090    0.5490   10.5930 N.pl3   1  LIG1       -0.2330
     29  N         -6.9840   -0.5930   10.5140 N.pl3   1  LIG1       -0.2330
     30  H         -4.4240    1.2830   10.8860 H       1  LIG1        0.1740
     31  H         -4.6610   -0.1490    9.9910 H       1  LIG1        0.1740
     32  H         -7.9280   -0.7450   10.7460 H       1  LIG1        0.1740
     33  H         -6.5160   -1.2210    9.9180 H       1  LIG1        0.1740
@<TRIPOS>BOND
     1    33    29    1
     2    31    28    1
     3    29    32    1
     4    29    27    1
     5    28    30    1
     6    28    27    1
     7    27    26    2
     8    22    21   ar
     9    22    23   ar
    10    26    23    1
    11    21    20   ar
    12    23    24   ar
    13    20    18    1
    14    20    25   ar
    15    24    25   ar
    16    19    18    2
    17    18     1    1
    18     1     2    1
    19     2     3   ar
    20     2     7   ar
    21     3     4   ar
    22     7     6   ar
    23     4     5   ar
    24    14    13    2
    25    12    13    1
    26    12    11    1
    27    13    15   am
    28     6     5   ar
    29     5     8    1
    30    15    17    1
    31    15    16    1
    32    11     9    1
    33     9     8    1
    34     9    10    2
@<TRIPOS>MOLECULE
./../dock_file/temp/2748de4610c9ca1ec09a936055979b57/Camostat_Ligand_CID_2536:hmTMPRSS11_A:20230418100237/Camostat_Ligand_CID_2536:hmTMPRSS11_A_out_2.pdbqt
 33 34 0 0 0
SMALL
GASTEIGER

@<TRIPOS>ATOM
      1  O          2.3210  -11.6170    5.4270 O.3     1  LIG1       -0.2750
      2  C          1.5440  -10.9980    6.3570 C.ar    1  LIG1        0.0790
      3  C          0.2900  -10.5000    6.0010 C.ar    1  LIG1        0.0380
      4  C         -0.5050   -9.8650    6.9540 C.ar    1  LIG1        0.0100
      5  C         -0.0490   -9.7290    8.2650 C.ar    1  LIG1       -0.0490
      6  C          1.2050  -10.2270    8.6220 C.ar    1  LIG1        0.0100
      7  C          2.0010  -10.8620    7.6680 C.ar    1  LIG1        0.0380
      8  C         -0.9080   -9.0440    9.2950 C.3     1  LIG1        0.1490
      9  C         -2.3530   -8.9220    8.8710 C.2     1  LIG1        0.2630
     10  O         -3.1680   -9.8340    8.8620 O.2     1  LIG1       -0.2650
     11  O         -2.6140   -7.6260    8.4950 O.3     1  LIG1       -0.3120
     12  C         -3.6370   -7.4470    7.5380 C.3     1  LIG1        0.2810
     13  C         -3.1000   -6.6620    6.3600 C.2     1  LIG1        0.2430
     14  O         -2.5840   -7.2770    5.4230 O.2     1  LIG1       -0.2710
     15  N         -3.2310   -5.2730    6.4000 N.am    1  LIG1       -0.3590
     16  C         -3.8480   -4.5110    7.4830 C.3     1  LIG1        0.1520
     17  C         -2.7370   -4.4750    5.2850 C.3     1  LIG1        0.1520
     18  C          3.3920  -10.8470    4.9680 C.2     1  LIG1        0.2980
     19  O          3.3480   -9.6570    4.6930 O.2     1  LIG1       -0.2590
     20  C          4.6220  -11.6670    4.8330 C.ar    1  LIG1        0.0400
     21  C          4.8680  -12.7080    5.7270 C.ar    1  LIG1        0.0200
     22  C          6.0230  -13.4790    5.6000 C.ar    1  LIG1        0.0330
     23  C          6.9340  -13.2080    4.5790 C.ar    1  LIG1        0.0750
     24  C          6.6890  -12.1660    3.6840 C.ar    1  LIG1        0.0330
     25  C          5.5330  -11.3960    3.8110 C.ar    1  LIG1        0.0200
     26  N          8.0930  -13.9810    4.4510 N.pl3   1  LIG1       -0.0660
     27  C          9.2520  -13.4360    4.7310 C.cat   1  LIG1        0.6920
     28  N          9.4880  -12.1450    5.1510 N.pl3   1  LIG1       -0.2330
     29  N         10.4150  -14.1620    4.6180 N.pl3   1  LIG1       -0.2330
     30  H          8.7360  -11.5210    5.2710 H       1  LIG1        0.1740
     31  H         10.4090  -11.8460    5.3300 H       1  LIG1        0.1740
     32  H         10.3830  -15.1010    4.3260 H       1  LIG1        0.1740
     33  H         11.2790  -13.7410    4.8310 H       1  LIG1        0.1740
@<TRIPOS>BOND
     1    24    25   ar
     2    24    23   ar
     3    25    20   ar
     4    32    29    1
     5    26    23    1
     6    26    27    2
     7    23    22   ar
     8    29    27    1
     9    29    33    1
    10    19    18    2
    11    27    28    1
    12    20    18    1
    13    20    21   ar
    14    18     1    1
    15    28    30    1
    16    28    31    1
    17    17    15    1
    18    14    13    2
    19     1     2    1
    20    22    21   ar
    21     3     2   ar
    22     3     4   ar
    23     2     7   ar
    24    13    15   am
    25    13    12    1
    26    15    16    1
    27     4     5   ar
    28    12    11    1
    29     7     6   ar
    30     5     6   ar
    31     5     8    1
    32    11     9    1
    33    10     9    2
    34     9     8    1
@<TRIPOS>MOLECULE
./../dock_file/temp/2748de4610c9ca1ec09a936055979b57/Camostat_Ligand_CID_2536:hmTMPRSS11_A:20230418100237/Camostat_Ligand_CID_2536:hmTMPRSS11_A_out_2.pdbqt
 33 34 0 0 0
SMALL
GASTEIGER

@<TRIPOS>ATOM
      1  O          3.9920  -10.5040    2.6770 O.3     1  LIG1       -0.2750
      2  C          3.5470  -10.5850    3.9600 C.ar    1  LIG1        0.0790
      3  C          3.1780   -9.4270    4.6460 C.ar    1  LIG1        0.0380
      4  C          2.7220   -9.5100    5.9610 C.ar    1  LIG1        0.0100
      5  C          2.6330  -10.7510    6.5910 C.ar    1  LIG1       -0.0490
      6  C          3.0020  -11.9090    5.9060 C.ar    1  LIG1        0.0100
      7  C          3.4590  -11.8260    4.5900 C.ar    1  LIG1        0.0380
      8  C          2.1400  -10.8420    8.0120 C.3     1  LIG1        0.1490
      9  C          0.7240  -10.3430    8.1770 C.2     1  LIG1        0.2630
     10  O          0.3520   -9.5290    9.0110 O.2     1  LIG1       -0.2650
     11  O         -0.0860  -10.9440    7.2430 O.3     1  LIG1       -0.3120
     12  C         -1.2500  -10.2330    6.8760 C.3     1  LIG1        0.2810
     13  C         -1.1010   -9.7100    5.4620 C.2     1  LIG1        0.2430
     14  O         -0.4150  -10.3510    4.6610 O.2     1  LIG1       -0.2710
     15  N         -1.7660   -8.5260    5.1420 N.am    1  LIG1       -0.3590
     16  C         -2.5990   -7.7480    6.0570 C.3     1  LIG1        0.1520
     17  C         -1.6600   -7.9880    3.7920 C.3     1  LIG1        0.1520
     18  C          5.2700  -11.0310    2.4780 C.2     1  LIG1        0.2980
     19  O          5.5220  -12.1400    2.0310 O.2     1  LIG1       -0.2590
     20  C          6.3190  -10.0670    2.8990 C.ar    1  LIG1        0.0400
     21  C          7.3620  -10.4880    3.7230 C.ar    1  LIG1        0.0200
     22  C          8.3470   -9.5830    4.1180 C.ar    1  LIG1        0.0330
     23  C          8.2880   -8.2570    3.6900 C.ar    1  LIG1        0.0750
     24  C          7.2440   -7.8350    2.8660 C.ar    1  LIG1        0.0330
     25  C          6.2590   -8.7410    2.4710 C.ar    1  LIG1        0.0200
     26  N          9.2760   -7.3490    4.0870 N.pl3   1  LIG1       -0.0660
     27  C          9.0630   -6.6010    5.1420 C.cat   1  LIG1        0.6920
     28  N          7.9430   -6.5920    5.9470 N.pl3   1  LIG1       -0.2330
     29  N         10.0080   -5.6970    5.5650 N.pl3   1  LIG1       -0.2330
     30  H          7.1910   -7.1950    5.7500 H       1  LIG1        0.1740
     31  H          7.8970   -5.9810    6.7170 H       1  LIG1        0.1740
     32  H         10.8560   -5.6060    5.0750 H       1  LIG1        0.1740
     33  H          9.8360   -5.1410    6.3600 H       1  LIG1        0.1740
@<TRIPOS>BOND
     1    19    18    2
     2    25    24   ar
     3    25    20   ar
     4    18     1    1
     5    18    20    1
     6     1     2    1
     7    24    23   ar
     8    20    21   ar
     9    23    26    1
    10    23    22   ar
    11    21    22   ar
    12    17    15    1
    13     2     7   ar
    14     2     3   ar
    15    26    27    2
    16     7     6   ar
    17     3     4   ar
    18    14    13    2
    19    32    29    1
    20    15    13   am
    21    15    16    1
    22    27    29    1
    23    27    28    1
    24    13    12    1
    25    29    33    1
    26    30    28    1
    27     6     5   ar
    28    28    31    1
    29     4     5   ar
    30     5     8    1
    31    12    11    1
    32    11     9    1
    33     8     9    1
    34     9    10    2
