@<TRIPOS>MOLECULE
./../dock_file/temp/2748de4610c9ca1ec09a936055979b57/Camostat_Ligand_CID_2536:hmTMPRSS11_A:20230418100237/Camostat_Ligand_CID_2536:hmTMPRSS11_A_out_3.pdbqt
 33 34 0 0 0
SMALL
GASTEIGER

@<TRIPOS>ATOM
      1  O         15.7200  -18.8640   12.1980 O.3     1  LIG1       -0.2750
      2  C         16.3540  -18.1000   11.2670 C.ar    1  LIG1        0.0790
      3  C         15.6720  -17.0600   10.6350 C.ar    1  LIG1        0.0380
      4  C         16.3220  -16.2770    9.6820 C.ar    1  LIG1        0.0100
      5  C         17.6550  -16.5320    9.3610 C.ar    1  LIG1       -0.0490
      6  C         18.3380  -17.5720    9.9940 C.ar    1  LIG1        0.0100
      7  C         17.6870  -18.3560   10.9470 C.ar    1  LIG1        0.0380
      8  C         18.3580  -15.6860    8.3320 C.3     1  LIG1        0.1490
      9  C         17.4160  -15.1040    7.3050 C.2     1  LIG1        0.2630
     10  O         16.6920  -15.7490    6.5600 O.2     1  LIG1       -0.2650
     11  O         17.4940  -13.7310    7.3360 O.3     1  LIG1       -0.3120
     12  C         16.3310  -13.0490    7.7560 C.3     1  LIG1        0.2810
     13  C         16.2170  -11.7340    7.0140 C.2     1  LIG1        0.2430
     14  O         16.7910  -10.7420    7.4720 O.2     1  LIG1       -0.2710
     15  N         15.4680  -11.7220    5.8370 N.am    1  LIG1       -0.3590
     16  C         14.7870  -12.8770    5.2550 C.3     1  LIG1        0.1520
     17  C         15.3360  -10.4820    5.0840 C.3     1  LIG1        0.1520
     18  C         15.1100  -18.1350   13.2220 C.2     1  LIG1        0.2980
     19  O         15.6640  -17.3180   13.9420 O.2     1  LIG1       -0.2590
     20  C         13.6740  -18.4890   13.3490 C.ar    1  LIG1        0.0400
     21  C         12.7170  -17.7990   12.6060 C.ar    1  LIG1        0.0200
     22  C         11.3670  -18.1320   12.7260 C.ar    1  LIG1        0.0330
     23  C         10.9750  -19.1550   13.5880 C.ar    1  LIG1        0.0750
     24  C         11.9320  -19.8460   14.3320 C.ar    1  LIG1        0.0330
     25  C         13.2810  -19.5130   14.2130 C.ar    1  LIG1        0.0200
     26  N          9.6220  -19.4890   13.7080 N.pl3   1  LIG1       -0.0660
     27  C          9.1060  -20.3540   12.8690 C.cat   1  LIG1        0.6920
     28  N          9.7510  -21.0060   11.8400 N.pl3   1  LIG1       -0.2330
     29  N          7.7800  -20.7100   12.9520 N.pl3   1  LIG1       -0.2330
     30  H         10.7060  -20.8380   11.6730 H       1  LIG1        0.1740
     31  H          9.2550  -21.6380   11.2710 H       1  LIG1        0.1740
     32  H          7.2070  -20.3140   13.6480 H       1  LIG1        0.1740
     33  H          7.4050  -21.3610   12.3170 H       1  LIG1        0.1740
@<TRIPOS>BOND
     1    17    15    1
     2    16    15    1
     3    15    13   am
     4    10     9    2
     5    13    14    2
     6    13    12    1
     7     9    11    1
     8     9     8    1
     9    11    12    1
    10     8     5    1
    11     5     4   ar
    12     5     6   ar
    13     4     3   ar
    14     6     7   ar
    15     3     2   ar
    16     7     2   ar
    17     2     1    1
    18    31    28    1
    19    30    28    1
    20    28    27    1
    21     1    18    1
    22    33    29    1
    23    21    22   ar
    24    21    20   ar
    25    22    23   ar
    26    27    29    1
    27    27    26    2
    28    29    32    1
    29    18    20    1
    30    18    19    2
    31    20    25   ar
    32    23    26    1
    33    23    24   ar
    34    25    24   ar
@<TRIPOS>MOLECULE
./../dock_file/temp/2748de4610c9ca1ec09a936055979b57/Camostat_Ligand_CID_2536:hmTMPRSS11_A:20230418100237/Camostat_Ligand_CID_2536:hmTMPRSS11_A_out_3.pdbqt
 33 34 0 0 0
SMALL
GASTEIGER

@<TRIPOS>ATOM
      1  O          9.9790  -21.1830   13.1880 O.3     1  LIG1       -0.2750
      2  C          8.6710  -21.5570   13.2270 C.ar    1  LIG1        0.0790
      3  C          7.7100  -20.8080   12.5470 C.ar    1  LIG1        0.0380
      4  C          6.3700  -21.1910   12.5870 C.ar    1  LIG1        0.0100
      5  C          5.9900  -22.3250   13.3070 C.ar    1  LIG1       -0.0490
      6  C          6.9500  -23.0730   13.9870 C.ar    1  LIG1        0.0100
      7  C          8.2910  -22.6900   13.9470 C.ar    1  LIG1        0.0380
      8  C          4.5420  -22.7390   13.3510 C.3     1  LIG1        0.1490
      9  C          3.5910  -21.5670   13.2730 C.2     1  LIG1        0.2630
     10  O          2.8740  -21.2980   12.3190 O.2     1  LIG1       -0.2650
     11  O          3.6540  -20.8470   14.4430 O.3     1  LIG1       -0.3120
     12  C          2.5700  -19.9800   14.7000 C.3     1  LIG1        0.2810
     13  C          2.6790  -19.4330   16.1080 C.2     1  LIG1        0.2430
     14  O          2.5740  -20.2140   17.0580 O.2     1  LIG1       -0.2710
     15  N          2.9020  -18.0630   16.2500 N.am    1  LIG1       -0.3590
     16  C          3.0460  -17.1100   15.1520 C.3     1  LIG1        0.1520
     17  C          3.0230  -17.4920   17.5850 C.3     1  LIG1        0.1520
     18  C         10.3360  -20.2380   14.1540 C.2     1  LIG1        0.2980
     19  O          9.7870  -20.0810   15.2340 O.2     1  LIG1       -0.2590
     20  C         11.4810  -19.4120   13.6960 C.ar    1  LIG1        0.0400
     21  C         11.2670  -18.3470   12.8220 C.ar    1  LIG1        0.0200
     22  C         12.3430  -17.5700   12.3920 C.ar    1  LIG1        0.0330
     23  C         13.6340  -17.8590   12.8360 C.ar    1  LIG1        0.0750
     24  C         13.8480  -18.9250   13.7100 C.ar    1  LIG1        0.0330
     25  C         12.7720  -19.7020   14.1400 C.ar    1  LIG1        0.0200
     26  N         14.7130  -17.0800   12.4050 N.pl3   1  LIG1       -0.0660
     27  C         15.3190  -17.4000   11.2870 C.cat   1  LIG1        0.6920
     28  N         15.0190  -18.4500   10.4460 N.pl3   1  LIG1       -0.2330
     29  N         16.3840  -16.6610   10.8290 N.pl3   1  LIG1       -0.2330
     30  H         14.2760  -19.0570   10.6620 H       1  LIG1        0.1740
     31  H         15.5500  -18.5920    9.6280 H       1  LIG1        0.1740
     32  H         16.6980  -15.8810   11.3400 H       1  LIG1        0.1740
     33  H         16.8310  -16.9110    9.9880 H       1  LIG1        0.1740
@<TRIPOS>BOND
     1    31    28    1
     2    33    29    1
     3    28    30    1
     4    28    27    1
     5    29    27    1
     6    29    32    1
     7    27    26    2
     8    10     9    2
     9    22    21   ar
    10    22    23   ar
    11    26    23    1
    12     3     4   ar
    13     3     2   ar
    14     4     5   ar
    15    21    20   ar
    16    23    24   ar
    17     1     2    1
    18     1    18    1
    19     2     7   ar
    20     9     8    1
    21     9    11    1
    22     5     8    1
    23     5     6   ar
    24    20    25   ar
    25    20    18    1
    26    24    25   ar
    27     7     6   ar
    28    18    19    2
    29    11    12    1
    30    12    13    1
    31    16    15    1
    32    13    15   am
    33    13    14    2
    34    15    17    1
@<TRIPOS>MOLECULE
./../dock_file/temp/2748de4610c9ca1ec09a936055979b57/Camostat_Ligand_CID_2536:hmTMPRSS11_A:20230418100237/Camostat_Ligand_CID_2536:hmTMPRSS11_A_out_3.pdbqt
 33 34 0 0 0
SMALL
GASTEIGER

@<TRIPOS>ATOM
      1  O         10.5150  -20.0940   12.1890 O.3     1  LIG1       -0.2750
      2  C         11.6250  -19.3890   12.5380 C.ar    1  LIG1        0.0790
      3  C         11.8920  -18.1620   11.9300 C.ar    1  LIG1        0.0380
      4  C         13.0300  -17.4390   12.2870 C.ar    1  LIG1        0.0100
      5  C         13.9010  -17.9420   13.2540 C.ar    1  LIG1       -0.0490
      6  C         13.6340  -19.1690   13.8620 C.ar    1  LIG1        0.0100
      7  C         12.4960  -19.8920   13.5040 C.ar    1  LIG1        0.0380
      8  C         15.1310  -17.1620   13.6400 C.3     1  LIG1        0.1490
      9  C         16.3280  -17.4840   12.7770 C.2     1  LIG1        0.2630
     10  O         17.2390  -18.2410   13.0820 O.2     1  LIG1       -0.2650
     11  O         16.2380  -16.7940   11.5910 O.3     1  LIG1       -0.3120
     12  C         16.5980  -17.5050   10.4260 C.3     1  LIG1        0.2810
     13  C         17.1880  -16.5510    9.4080 C.2     1  LIG1        0.2430
     14  O         16.4240  -15.8540    8.7350 O.2     1  LIG1       -0.2710
     15  N         18.5780  -16.5100    9.2970 N.am    1  LIG1       -0.3590
     16  C         19.5150  -17.3070   10.0850 C.3     1  LIG1        0.1520
     17  C         19.1930  -15.6010    8.3380 C.3     1  LIG1        0.1520
     18  C          9.3580  -19.7230   12.8790 C.2     1  LIG1        0.2980
     19  O          9.1170  -18.6100   13.3200 O.2     1  LIG1       -0.2590
     20  C          8.4350  -20.8760   13.0350 C.ar    1  LIG1        0.0400
     21  C          7.1500  -20.8170   12.4990 C.ar    1  LIG1        0.0200
     22  C          6.2830  -21.9000   12.6450 C.ar    1  LIG1        0.0330
     23  C          6.7010  -23.0420   13.3280 C.ar    1  LIG1        0.0750
     24  C          7.9870  -23.1010   13.8660 C.ar    1  LIG1        0.0330
     25  C          8.8540  -22.0180   13.7200 C.ar    1  LIG1        0.0200
     26  N          5.8310  -24.1280   13.4750 N.pl3   1  LIG1       -0.0660
     27  C          5.0320  -24.1640   14.5140 C.cat   1  LIG1        0.6920
     28  N          4.9330  -23.2310   15.5240 N.pl3   1  LIG1       -0.2330
     29  N          4.1620  -25.2130   14.6950 N.pl3   1  LIG1       -0.2330
     30  H          5.5040  -22.4300   15.5120 H       1  LIG1        0.1740
     31  H          4.2910  -23.3680   16.2580 H       1  LIG1        0.1740
     32  H          4.1340  -25.9480   14.0400 H       1  LIG1        0.1740
     33  H          3.5670  -25.2290   15.4790 H       1  LIG1        0.1740
@<TRIPOS>BOND
     1    17    15    1
     2    14    13    2
     3    15    13   am
     4    15    16    1
     5    13    12    1
     6    12    11    1
     7    11     9    1
     8     3     4   ar
     9     3     2   ar
    10     1     2    1
    11     1    18    1
    12     4     5   ar
    13    21    22   ar
    14    21    20   ar
    15     2     7   ar
    16    22    23   ar
    17     9    10    2
    18     9     8    1
    19    18    20    1
    20    18    19    2
    21    20    25   ar
    22     5     8    1
    23     5     6   ar
    24    23    26    1
    25    23    24   ar
    26    26    27    2
    27     7     6   ar
    28    25    24   ar
    29    32    29    1
    30    27    29    1
    31    27    28    1
    32    29    33    1
    33    30    28    1
    34    28    31    1
@<TRIPOS>MOLECULE
./../dock_file/temp/2748de4610c9ca1ec09a936055979b57/Camostat_Ligand_CID_2536:hmTMPRSS11_A:20230418100237/Camostat_Ligand_CID_2536:hmTMPRSS11_A_out_3.pdbqt
 33 34 0 0 0
SMALL
GASTEIGER

@<TRIPOS>ATOM
      1  O         15.8320  -19.0540   12.2150 O.3     1  LIG1       -0.2750
      2  C         14.4950  -18.8490   12.0630 C.ar    1  LIG1        0.0790
      3  C         13.8670  -17.8030   12.7410 C.ar    1  LIG1        0.0380
      4  C         12.4980  -17.5930   12.5840 C.ar    1  LIG1        0.0100
      5  C         11.7550  -18.4270   11.7480 C.ar    1  LIG1       -0.0490
      6  C         12.3830  -19.4720   11.0700 C.ar    1  LIG1        0.0100
      7  C         13.7530  -19.6830   11.2270 C.ar    1  LIG1        0.0380
      8  C         10.2750  -18.2000   11.5790 C.3     1  LIG1        0.1490
      9  C          9.4350  -19.2200   12.3100 C.2     1  LIG1        0.2630
     10  O          8.6490  -19.9970   11.7870 O.2     1  LIG1       -0.2650
     11  O          9.6900  -19.1440   13.6590 O.3     1  LIG1       -0.3120
     12  C          9.7970  -20.3730   14.3450 C.3     1  LIG1        0.2810
     13  C         11.2110  -20.9010   14.2290 C.2     1  LIG1        0.2430
     14  O         12.1280  -20.2620   14.7530 O.2     1  LIG1       -0.2710
     15  N         11.3960  -22.0970   13.5350 N.am    1  LIG1       -0.3590
     16  C         10.3360  -22.8880   12.9140 C.3     1  LIG1        0.1520
     17  C         12.7380  -22.6490   13.4040 C.3     1  LIG1        0.1520
     18  C         16.5890  -17.8830   12.2850 C.2     1  LIG1        0.2980
     19  O         16.8970  -17.2940   13.3100 O.2     1  LIG1       -0.2590
     20  C         16.9750  -17.4120   10.9310 C.ar    1  LIG1        0.0400
     21  C         18.0110  -18.0430   10.2420 C.ar    1  LIG1        0.0200
     22  C         18.3720  -17.6020    8.9700 C.ar    1  LIG1        0.0330
     23  C         17.6990  -16.5290    8.3860 C.ar    1  LIG1        0.0750
     24  C         16.6630  -15.8970    9.0740 C.ar    1  LIG1        0.0330
     25  C         16.3010  -16.3390   10.3470 C.ar    1  LIG1        0.0200
     26  N         18.0630  -16.0860    7.1090 N.pl3   1  LIG1       -0.0660
     27  C         19.0210  -15.1980    6.9950 C.cat   1  LIG1        0.6920
     28  N         19.7480  -14.6200    8.0130 N.pl3   1  LIG1       -0.2330
     29  N         19.4080  -14.7380    5.7590 N.pl3   1  LIG1       -0.2330
     30  H         19.5670  -14.8650    8.9480 H       1  LIG1        0.1740
     31  H         20.4490  -13.9600    7.8030 H       1  LIG1        0.1740
     32  H         18.9650  -15.0740    4.9470 H       1  LIG1        0.1740
     33  H         20.1300  -14.0710    5.6860 H       1  LIG1        0.1740
@<TRIPOS>BOND
     1    32    29    1
     2    33    29    1
     3    29    27    1
     4    27    26    2
     5    27    28    1
     6    26    23    1
     7    31    28    1
     8    28    30    1
     9    23    22   ar
    10    23    24   ar
    11    22    21   ar
    12    24    25   ar
    13    21    20   ar
    14    25    20   ar
    15    20    18    1
    16     6     7   ar
    17     6     5   ar
    18     7     2   ar
    19     8     5    1
    20     8     9    1
    21     5     4   ar
    22    10     9    2
    23     2     1    1
    24     2     3   ar
    25     1    18    1
    26    18    19    2
    27     9    11    1
    28     4     3   ar
    29    16    15    1
    30    17    15    1
    31    15    13   am
    32    11    12    1
    33    13    12    1
    34    13    14    2
@<TRIPOS>MOLECULE
./../dock_file/temp/2748de4610c9ca1ec09a936055979b57/Camostat_Ligand_CID_2536:hmTMPRSS11_A:20230418100237/Camostat_Ligand_CID_2536:hmTMPRSS11_A_out_3.pdbqt
 33 34 0 0 0
SMALL
GASTEIGER

@<TRIPOS>ATOM
      1  O         17.1220  -18.0730   10.7370 O.3     1  LIG1       -0.2750
      2  C         17.5240  -17.1420    9.8300 C.ar    1  LIG1        0.0790
      3  C         18.8830  -16.8840    9.6480 C.ar    1  LIG1        0.0380
      4  C         19.2940  -15.9300    8.7190 C.ar    1  LIG1        0.0100
      5  C         18.3460  -15.2320    7.9700 C.ar    1  LIG1       -0.0490
      6  C         16.9870  -15.4890    8.1520 C.ar    1  LIG1        0.0100
      7  C         16.5760  -16.4440    9.0820 C.ar    1  LIG1        0.0380
      8  C         18.7900  -14.2000    6.9660 C.3     1  LIG1        0.1490
      9  C         18.8450  -12.8040    7.5410 C.2     1  LIG1        0.2630
     10  O         19.8590  -12.2320    7.9170 O.2     1  LIG1       -0.2650
     11  O         17.5780  -12.2710    7.5760 O.3     1  LIG1       -0.3120
     12  C         17.1000  -11.7160    6.3690 C.3     1  LIG1        0.2810
     13  C         15.6600  -12.1320    6.1520 C.2     1  LIG1        0.2430
     14  O         14.8040  -11.7470    6.9530 O.2     1  LIG1       -0.2710
     15  N         15.3820  -12.9280    5.0400 N.am    1  LIG1       -0.3590
     16  C         16.3640  -13.3910    4.0620 C.3     1  LIG1        0.1520
     17  C         14.0090  -13.3460    4.7850 C.3     1  LIG1        0.1520
     18  C         16.5840  -17.5390   11.9110 C.2     1  LIG1        0.2980
     19  O         17.2180  -16.9940   12.8010 O.2     1  LIG1       -0.2590
     20  C         15.1130  -17.7300   11.9600 C.ar    1  LIG1        0.0400
     21  C         14.5170  -18.7530   11.2230 C.ar    1  LIG1        0.0200
     22  C         13.1340  -18.9320   11.2710 C.ar    1  LIG1        0.0330
     23  C         12.3470  -18.0880   12.0530 C.ar    1  LIG1        0.0750
     24  C         12.9430  -17.0640   12.7900 C.ar    1  LIG1        0.0330
     25  C         14.3250  -16.8850   12.7430 C.ar    1  LIG1        0.0200
     26  N         10.9610  -18.2680   12.1000 N.pl3   1  LIG1       -0.0660
     27  C         10.4490  -19.0030   13.0580 C.cat   1  LIG1        0.6920
     28  N         11.1290  -19.6500   14.0680 N.pl3   1  LIG1       -0.2330
     29  N          9.0910  -19.2050   13.1400 N.pl3   1  LIG1       -0.2330
     30  H         12.1090  -19.5850   14.1210 H       1  LIG1        0.1740
     31  H         10.6330  -20.1780   14.7350 H       1  LIG1        0.1740
     32  H          8.4920  -18.7950   12.4760 H       1  LIG1        0.1740
     33  H          8.7190  -19.7580   13.8640 H       1  LIG1        0.1740
@<TRIPOS>BOND
     1    16    15    1
     2    17    15    1
     3    15    13   am
     4    13    12    1
     5    13    14    2
     6    12    11    1
     7     8     9    1
     8     8     5    1
     9     9    11    1
    10     9    10    2
    11     5     6   ar
    12     5     4   ar
    13     6     7   ar
    14     4     3   ar
    15     7     2   ar
    16     3     2   ar
    17     2     1    1
    18     1    18    1
    19    21    22   ar
    20    21    20   ar
    21    22    23   ar
    22    18    20    1
    23    18    19    2
    24    20    25   ar
    25    23    26    1
    26    23    24   ar
    27    26    27    2
    28    32    29    1
    29    25    24   ar
    30    27    29    1
    31    27    28    1
    32    29    33    1
    33    28    30    1
    34    28    31    1
@<TRIPOS>MOLECULE
./../dock_file/temp/2748de4610c9ca1ec09a936055979b57/Camostat_Ligand_CID_2536:hmTMPRSS11_A:20230418100237/Camostat_Ligand_CID_2536:hmTMPRSS11_A_out_3.pdbqt
 33 34 0 0 0
SMALL
GASTEIGER

@<TRIPOS>ATOM
      1  O         12.7080  -17.8450   13.1460 O.3     1  LIG1       -0.2750
      2  C         13.7890  -17.6510   12.3420 C.ar    1  LIG1        0.0790
      3  C         13.9620  -18.4380   11.2030 C.ar    1  LIG1        0.0380
      4  C         15.0690  -18.2390   10.3790 C.ar    1  LIG1        0.0100
      5  C         16.0030  -17.2520   10.6930 C.ar    1  LIG1       -0.0490
      6  C         15.8300  -16.4640   11.8310 C.ar    1  LIG1        0.0100
      7  C         14.7220  -16.6640   12.6550 C.ar    1  LIG1        0.0380
      8  C         17.2000  -17.0360    9.8030 C.3     1  LIG1        0.1490
      9  C         16.8560  -16.3240    8.5150 C.2     1  LIG1        0.2630
     10  O         16.4630  -16.8630    7.4900 O.2     1  LIG1       -0.2650
     11  O         17.0510  -14.9720    8.6720 O.3     1  LIG1       -0.3120
     12  C         17.5040  -14.2710    7.5330 C.3     1  LIG1        0.2810
     13  C         16.4830  -13.2230    7.1410 C.2     1  LIG1        0.2430
     14  O         16.2620  -12.2900    7.9170 O.2     1  LIG1       -0.2710
     15  N         15.8510  -13.3730    5.9060 N.am    1  LIG1       -0.3590
     16  C         16.0960  -14.4550    4.9550 C.3     1  LIG1        0.1520
     17  C         14.8670  -12.3860    5.4800 C.3     1  LIG1        0.1520
     18  C         12.6430  -19.1150   13.7240 C.2     1  LIG1        0.2980
     19  O         13.5630  -19.6910   14.2860 O.2     1  LIG1       -0.2590
     20  C         11.2920  -19.7100   13.5600 C.ar    1  LIG1        0.0400
     21  C         11.1020  -21.0760   13.7610 C.ar    1  LIG1        0.0200
     22  C          9.8330  -21.6340   13.6070 C.ar    1  LIG1        0.0330
     23  C          8.7540  -20.8260   13.2510 C.ar    1  LIG1        0.0750
     24  C          8.9430  -19.4590   13.0490 C.ar    1  LIG1        0.0330
     25  C         10.2130  -18.9010   13.2030 C.ar    1  LIG1        0.0200
     26  N          7.4820  -21.3860   13.0960 N.pl3   1  LIG1       -0.0660
     27  C          7.0410  -21.6340   11.8860 C.cat   1  LIG1        0.6920
     28  N          7.6970  -21.4050   10.6960 N.pl3   1  LIG1       -0.2330
     29  N          5.7960  -22.1840   11.6910 N.pl3   1  LIG1       -0.2330
     30  H          8.5990  -21.0120   10.6980 H       1  LIG1        0.1740
     31  H          7.2610  -21.6330    9.8420 H       1  LIG1        0.1740
     32  H          5.2250  -22.3970   12.4640 H       1  LIG1        0.1740
     33  H          5.4760  -22.3660   10.7770 H       1  LIG1        0.1740
@<TRIPOS>BOND
     1    16    15    1
     2    17    15    1
     3    15    13   am
     4    13    12    1
     5    13    14    2
     6    10     9    2
     7    12    11    1
     8     9    11    1
     9     9     8    1
    10     8     5    1
    11    31    28    1
    12     4     5   ar
    13     4     3   ar
    14     5     6   ar
    15    28    30    1
    16    28    27    1
    17    33    29    1
    18     3     2   ar
    19    29    27    1
    20    29    32    1
    21     6     7   ar
    22    27    26    2
    23     2     7   ar
    24     2     1    1
    25    24    25   ar
    26    24    23   ar
    27    26    23    1
    28     1    18    1
    29    25    20   ar
    30    23    22   ar
    31    20    18    1
    32    20    21   ar
    33    22    21   ar
    34    18    19    2
@<TRIPOS>MOLECULE
./../dock_file/temp/2748de4610c9ca1ec09a936055979b57/Camostat_Ligand_CID_2536:hmTMPRSS11_A:20230418100237/Camostat_Ligand_CID_2536:hmTMPRSS11_A_out_3.pdbqt
 33 34 0 0 0
SMALL
GASTEIGER

@<TRIPOS>ATOM
      1  O         10.8010  -20.5610   12.6550 O.3     1  LIG1       -0.2750
      2  C         11.8460  -19.7090   12.8480 C.ar    1  LIG1        0.0790
      3  C         12.0090  -18.6040   12.0120 C.ar    1  LIG1        0.0380
      4  C         13.0790  -17.7330   12.2090 C.ar    1  LIG1        0.0100
      5  C         13.9860  -17.9640   13.2440 C.ar    1  LIG1       -0.0490
      6  C         13.8220  -19.0690   14.0800 C.ar    1  LIG1        0.0100
      7  C         12.7520  -19.9410   13.8820 C.ar    1  LIG1        0.0380
      8  C         15.1420  -17.0220   13.4580 C.3     1  LIG1        0.1490
      9  C         16.4000  -17.4630   12.7470 C.2     1  LIG1        0.2630
     10  O         17.1750  -18.3210   13.1450 O.2     1  LIG1       -0.2650
     11  O         16.5420  -16.7500   11.5800 O.3     1  LIG1       -0.3120
     12  C         16.8630  -17.4990   10.4270 C.3     1  LIG1        0.2810
     13  C         18.1990  -17.0430    9.8790 C.2     1  LIG1        0.2430
     14  O         19.2290  -17.5510   10.3280 O.2     1  LIG1       -0.2710
     15  N         18.1840  -16.0690    8.8790 N.am    1  LIG1       -0.3590
     16  C         16.9860  -15.4550    8.3110 C.3     1  LIG1        0.1520
     17  C         19.4450  -15.6040    8.3140 C.3     1  LIG1        0.1520
     18  C          9.5440  -19.9700   12.8030 C.2     1  LIG1        0.2980
     19  O          9.2000  -19.2470   13.7260 O.2     1  LIG1       -0.2590
     20  C          8.6410  -20.3470   11.6860 C.ar    1  LIG1        0.0400
     21  C          7.3610  -20.8300   11.9570 C.ar    1  LIG1        0.0200
     22  C          6.5130  -21.1830   10.9070 C.ar    1  LIG1        0.0330
     23  C          6.9440  -21.0550    9.5870 C.ar    1  LIG1        0.0750
     24  C          8.2250  -20.5720    9.3160 C.ar    1  LIG1        0.0330
     25  C          9.0730  -20.2190   10.3660 C.ar    1  LIG1        0.0200
     26  N          6.0940  -21.4090    8.5350 N.pl3   1  LIG1       -0.0660
     27  C          5.3550  -20.4800    7.9770 C.cat   1  LIG1        0.6920
     28  N          5.3050  -19.1430    8.3070 N.pl3   1  LIG1       -0.2330
     29  N          4.5050  -20.7870    6.9400 N.pl3   1  LIG1       -0.2330
     30  H          5.8660  -18.7950    9.0360 H       1  LIG1        0.1740
     31  H          4.7050  -18.5370    7.8140 H       1  LIG1        0.1740
     32  H          4.4480  -21.7120    6.6080 H       1  LIG1        0.1740
     33  H          3.9560  -20.0810    6.5290 H       1  LIG1        0.1740
@<TRIPOS>BOND
     1    33    29    1
     2    32    29    1
     3    29    27    1
     4    31    28    1
     5    27    28    1
     6    27    26    2
     7    28    30    1
     8    16    15    1
     9    17    15    1
    10    26    23    1
    11    15    13   am
    12    24    23   ar
    13    24    25   ar
    14    23    22   ar
    15    13    14    2
    16    13    12    1
    17    25    20   ar
    18    12    11    1
    19    22    21   ar
    20    11     9    1
    21    20    21   ar
    22    20    18    1
    23     3     4   ar
    24     3     2   ar
    25     4     5   ar
    26     1    18    1
    27     1     2    1
    28     9    10    2
    29     9     8    1
    30    18    19    2
    31     2     7   ar
    32     5     8    1
    33     5     6   ar
    34     7     6   ar
@<TRIPOS>MOLECULE
./../dock_file/temp/2748de4610c9ca1ec09a936055979b57/Camostat_Ligand_CID_2536:hmTMPRSS11_A:20230418100237/Camostat_Ligand_CID_2536:hmTMPRSS11_A_out_3.pdbqt
 33 34 0 0 0
SMALL
GASTEIGER

@<TRIPOS>ATOM
      1  O         11.0680  -20.8780   12.3040 O.3     1  LIG1       -0.2750
      2  C         11.9810  -19.8950   12.5340 C.ar    1  LIG1        0.0790
      3  C         11.8990  -18.6890   11.8370 C.ar    1  LIG1        0.0380
      4  C         12.8350  -17.6820   12.0730 C.ar    1  LIG1        0.0100
      5  C         13.8530  -17.8810   13.0060 C.ar    1  LIG1       -0.0490
      6  C         13.9350  -19.0870   13.7030 C.ar    1  LIG1        0.0100
      7  C         12.9990  -20.0940   13.4670 C.ar    1  LIG1        0.0380
      8  C         14.8640  -16.7930   13.2610 C.3     1  LIG1        0.1490
      9  C         16.2180  -17.0960   12.6640 C.2     1  LIG1        0.2630
     10  O         17.1650  -17.5830   13.2650 O.2     1  LIG1       -0.2650
     11  O         16.2240  -16.7410   11.3360 O.3     1  LIG1       -0.3120
     12  C         16.7370  -17.6990   10.4350 C.3     1  LIG1        0.2810
     13  C         15.6030  -18.5380    9.8830 C.2     1  LIG1        0.2430
     14  O         14.8380  -18.0330    9.0580 O.2     1  LIG1       -0.2710
     15  N         15.4950  -19.8520   10.3410 N.am    1  LIG1       -0.3590
     16  C         16.3890  -20.4900   11.3050 C.3     1  LIG1        0.1520
     17  C         14.4250  -20.7010    9.8320 C.3     1  LIG1        0.1520
     18  C          9.7720  -20.5680   12.7250 C.2     1  LIG1        0.2980
     19  O          9.4580  -20.1870   13.8430 O.2     1  LIG1       -0.2590
     20  C          8.7900  -20.7770   11.6310 C.ar    1  LIG1        0.0400
     21  C          8.3610  -22.0650   11.3160 C.ar    1  LIG1        0.0200
     22  C          7.4370  -22.2610   10.2890 C.ar    1  LIG1        0.0330
     23  C          6.9440  -21.1680    9.5770 C.ar    1  LIG1        0.0750
     24  C          7.3730  -19.8790    9.8920 C.ar    1  LIG1        0.0330
     25  C          8.2960  -19.6830   10.9190 C.ar    1  LIG1        0.0200
     26  N          6.0180  -21.3650    8.5470 N.pl3   1  LIG1       -0.0660
     27  C          4.7430  -21.4450    8.8470 C.cat   1  LIG1        0.6920
     28  N          4.1740  -21.3570   10.0980 N.pl3   1  LIG1       -0.2330
     29  N          3.8010  -21.6370    7.8640 N.pl3   1  LIG1       -0.2330
     30  H          4.7420  -21.2190   10.8890 H       1  LIG1        0.1740
     31  H          3.1970  -21.4330   10.2000 H       1  LIG1        0.1740
     32  H          4.0800  -21.7160    6.9230 H       1  LIG1        0.1740
     33  H          2.8470  -21.6950    8.1020 H       1  LIG1        0.1740
@<TRIPOS>BOND
     1    32    29    1
     2    29    33    1
     3    29    27    1
     4    26    27    2
     5    26    23    1
     6    27    28    1
     7    14    13    2
     8    23    24   ar
     9    23    22   ar
    10    17    15    1
    11    13    15   am
    12    13    12    1
    13    24    25   ar
    14    28    31    1
    15    28    30    1
    16    22    21   ar
    17    15    16    1
    18    12    11    1
    19    25    20   ar
    20    21    20   ar
    21    11     9    1
    22    20    18    1
    23     3     4   ar
    24     3     2   ar
    25     4     5   ar
    26     1     2    1
    27     1    18    1
    28     2     7   ar
    29     9     8    1
    30     9    10    2
    31    18    19    2
    32     5     8    1
    33     5     6   ar
    34     7     6   ar
@<TRIPOS>MOLECULE
./../dock_file/temp/2748de4610c9ca1ec09a936055979b57/Camostat_Ligand_CID_2536:hmTMPRSS11_A:20230418100237/Camostat_Ligand_CID_2536:hmTMPRSS11_A_out_3.pdbqt
 33 34 0 0 0
SMALL
GASTEIGER

@<TRIPOS>ATOM
      1  O          9.5970  -19.9310   10.6550 O.3     1  LIG1       -0.2750
      2  C          8.5760  -20.6860   11.1460 C.ar    1  LIG1        0.0790
      3  C          8.7790  -21.4880   12.2690 C.ar    1  LIG1        0.0380
      4  C          7.7340  -22.2610   12.7720 C.ar    1  LIG1        0.0100
      5  C          6.4840  -22.2320   12.1530 C.ar    1  LIG1       -0.0490
      6  C          6.2810  -21.4290   11.0300 C.ar    1  LIG1        0.0100
      7  C          7.3270  -20.6560   10.5270 C.ar    1  LIG1        0.0380
      8  C          5.3540  -23.0670   12.6970 C.3     1  LIG1        0.1490
      9  C          4.7180  -22.4680   13.9300 C.2     1  LIG1        0.2630
     10  O          4.3880  -21.2980   14.0590 O.2     1  LIG1       -0.2650
     11  O          4.5660  -23.4430   14.8870 O.3     1  LIG1       -0.3120
     12  C          5.7530  -24.0520   15.3520 C.3     1  LIG1        0.2810
     13  C          5.5000  -25.5210   15.6180 C.2     1  LIG1        0.2430
     14  O          4.3350  -25.9260   15.6560 O.2     1  LIG1       -0.2710
     15  N          6.6140  -26.3420   15.7990 N.am    1  LIG1       -0.3590
     16  C          8.0070  -25.9030   15.7480 C.3     1  LIG1        0.1520
     17  C          6.4220  -27.7640   16.0500 C.3     1  LIG1        0.1520
     18  C          9.9330  -18.8320   11.4490 C.2     1  LIG1        0.2980
     19  O          9.1480  -18.0100   11.8970 O.2     1  LIG1       -0.2590
     20  C         11.3980  -18.7660   11.6800 C.ar    1  LIG1        0.0400
     21  C         11.8950  -18.6390   12.9770 C.ar    1  LIG1        0.0200
     22  C         13.2710  -18.5780   13.1940 C.ar    1  LIG1        0.0330
     23  C         14.1510  -18.6430   12.1140 C.ar    1  LIG1        0.0750
     24  C         13.6550  -18.7710   10.8160 C.ar    1  LIG1        0.0330
     25  C         12.2790  -18.8320   10.6000 C.ar    1  LIG1        0.0200
     26  N         15.5320  -18.5820   12.3320 N.pl3   1  LIG1       -0.0660
     27  C         16.0980  -17.4090   12.4830 C.cat   1  LIG1        0.6920
     28  N         15.4840  -16.1750   12.4540 N.pl3   1  LIG1       -0.2330
     29  N         17.4520  -17.3050   12.6990 N.pl3   1  LIG1       -0.2330
     30  H         14.5130  -16.1130   12.3060 H       1  LIG1        0.1740
     31  H         16.0170  -15.3570   12.5800 H       1  LIG1        0.1740
     32  H         18.0070  -18.1160   12.7420 H       1  LIG1        0.1740
     33  H         17.8660  -16.4180   12.8120 H       1  LIG1        0.1740
@<TRIPOS>BOND
     1     7     6   ar
     2     7     2   ar
     3    25    24   ar
     4    25    20   ar
     5     1     2    1
     6     1    18    1
     7    24    23   ar
     8     6     5   ar
     9     2     3   ar
    10    18    20    1
    11    18    19    2
    12    20    21   ar
    13    23    26    1
    14    23    22   ar
    15     5     8    1
    16     5     4   ar
    17     3     4   ar
    18    30    28    1
    19    26    27    2
    20    28    27    1
    21    28    31    1
    22    27    29    1
    23     8     9    1
    24    29    32    1
    25    29    33    1
    26    21    22   ar
    27     9    10    2
    28     9    11    1
    29    11    12    1
    30    12    13    1
    31    13    14    2
    32    13    15   am
    33    16    15    1
    34    15    17    1
