@<TRIPOS>MOLECULE
./../dock_file/temp/2748de4610c9ca1ec09a936055979b57/Camostat_Ligand_CID_2536:hmTMPRSS11_A:20230418100237/Camostat_Ligand_CID_2536:hmTMPRSS11_A_out_5.pdbqt
 33 34 0 0 0
SMALL
GASTEIGER

@<TRIPOS>ATOM
      1  O         26.6610   -6.9560   22.9260 O.3     1  LIG1       -0.2750
      2  C         27.1900   -8.1080   23.4200 C.ar    1  LIG1        0.0790
      3  C         28.5060   -8.4590   23.1160 C.ar    1  LIG1        0.0380
      4  C         29.0480   -9.6390   23.6230 C.ar    1  LIG1        0.0100
      5  C         28.2750  -10.4690   24.4350 C.ar    1  LIG1       -0.0490
      6  C         26.9590  -10.1190   24.7390 C.ar    1  LIG1        0.0100
      7  C         26.4170   -8.9380   24.2320 C.ar    1  LIG1        0.0380
      8  C         28.8610  -11.7450   24.9830 C.3     1  LIG1        0.1490
      9  C         28.1260  -12.9790   24.5130 C.2     1  LIG1        0.2630
     10  O         27.4770  -13.7320   25.2260 O.2     1  LIG1       -0.2650
     11  O         28.2990  -13.1280   23.1580 O.3     1  LIG1       -0.3120
     12  C         27.2220  -13.7070   22.4510 C.3     1  LIG1        0.2810
     13  C         27.2890  -13.2960   20.9950 C.2     1  LIG1        0.2430
     14  O         27.9560  -12.3050   20.6880 O.2     1  LIG1       -0.2710
     15  N         26.5900  -14.0780   20.0740 N.am    1  LIG1       -0.3590
     16  C         25.8020  -15.2660   20.3970 C.3     1  LIG1        0.1520
     17  C         26.6310  -13.7270   18.6610 C.3     1  LIG1        0.1520
     18  C         25.5840   -7.1450   22.0560 C.2     1  LIG1        0.2980
     19  O         24.4290   -6.8110   22.2680 O.2     1  LIG1       -0.2590
     20  C         26.0160   -7.8330   20.8120 C.ar    1  LIG1        0.0400
     21  C         26.8220   -7.1660   19.8900 C.ar    1  LIG1        0.0200
     22  C         27.2280   -7.8120   18.7230 C.ar    1  LIG1        0.0330
     23  C         26.8260   -9.1250   18.4760 C.ar    1  LIG1        0.0750
     24  C         26.0200   -9.7920   19.3980 C.ar    1  LIG1        0.0330
     25  C         25.6140   -9.1460   20.5660 C.ar    1  LIG1        0.0200
     26  N         27.2330   -9.7730   17.3050 N.pl3   1  LIG1       -0.0660
     27  C         28.2930  -10.5440   17.3430 C.cat   1  LIG1        0.6920
     28  N         29.0930  -10.8110   18.4330 N.pl3   1  LIG1       -0.2330
     29  N         28.7260  -11.1990   16.2140 N.pl3   1  LIG1       -0.2330
     30  H         28.8900  -10.4010   19.3040 H       1  LIG1        0.1740
     31  H         29.8680  -11.4110   18.3390 H       1  LIG1        0.1740
     32  H         28.2390  -11.0920   15.3650 H       1  LIG1        0.1740
     33  H         29.5230  -11.7760   16.2550 H       1  LIG1        0.1740
@<TRIPOS>BOND
     1    32    29    1
     2    29    33    1
     3    29    27    1
     4    26    27    2
     5    26    23    1
     6    27    28    1
     7    31    28    1
     8    28    30    1
     9    23    22   ar
    10    23    24   ar
    11    17    15    1
    12    22    21   ar
    13    24    25   ar
    14    21    20   ar
    15    15    16    1
    16    15    13   am
    17    25    20   ar
    18    14    13    2
    19    20    18    1
    20    13    12    1
    21    18    19    2
    22    18     1    1
    23    12    11    1
    24     1     2    1
    25     3     2   ar
    26     3     4   ar
    27    11     9    1
    28     2     7   ar
    29     4     5   ar
    30     7     6   ar
    31     5     6   ar
    32     5     8    1
    33     9     8    1
    34     9    10    2
@<TRIPOS>MOLECULE
./../dock_file/temp/2748de4610c9ca1ec09a936055979b57/Camostat_Ligand_CID_2536:hmTMPRSS11_A:20230418100237/Camostat_Ligand_CID_2536:hmTMPRSS11_A_out_5.pdbqt
 33 34 0 0 0
SMALL
GASTEIGER

@<TRIPOS>ATOM
      1  O         28.7710  -12.4260   24.3850 O.3     1  LIG1       -0.2750
      2  C         28.3480  -11.2050   23.9580 C.ar    1  LIG1        0.0790
      3  C         27.3410  -10.5320   24.6500 C.ar    1  LIG1        0.0380
      4  C         26.9090   -9.2820   24.2110 C.ar    1  LIG1        0.0100
      5  C         27.4840   -8.7010   23.0800 C.ar    1  LIG1       -0.0490
      6  C         28.4910   -9.3740   22.3880 C.ar    1  LIG1        0.0100
      7  C         28.9240  -10.6250   22.8270 C.ar    1  LIG1        0.0380
      8  C         27.0170   -7.3500   22.6060 C.3     1  LIG1        0.1490
      9  C         25.5530   -7.3300   22.2330 C.2     1  LIG1        0.2630
     10  O         24.7280   -6.5230   22.6400 O.2     1  LIG1       -0.2650
     11  O         25.2870   -8.3600   21.3620 O.3     1  LIG1       -0.3120
     12  C         25.5550   -8.1100   19.9980 C.3     1  LIG1        0.2810
     13  C         26.2110   -9.3250   19.3770 C.2     1  LIG1        0.2430
     14  O         26.1420  -10.4050   19.9690 O.2     1  LIG1       -0.2710
     15  N         26.8560   -9.1510   18.1510 N.am    1  LIG1       -0.3590
     16  C         26.9460   -7.8930   17.4130 C.3     1  LIG1        0.1520
     17  C         27.4940  -10.2930   17.5100 C.3     1  LIG1        0.1520
     18  C         27.7390  -13.3060   24.7200 C.2     1  LIG1        0.2980
     19  O         27.2450  -13.4370   25.8290 O.2     1  LIG1       -0.2590
     20  C         27.3100  -14.1000   23.5400 C.ar    1  LIG1        0.0400
     21  C         27.8320  -15.3760   23.3310 C.ar    1  LIG1        0.0200
     22  C         27.4290  -16.1220   22.2240 C.ar    1  LIG1        0.0330
     23  C         26.5030  -15.5920   21.3250 C.ar    1  LIG1        0.0750
     24  C         25.9800  -14.3150   21.5340 C.ar    1  LIG1        0.0330
     25  C         26.3840  -13.5690   22.6420 C.ar    1  LIG1        0.0200
     26  N         26.0980  -16.3400   20.2140 N.pl3   1  LIG1       -0.0660
     27  C         26.7450  -16.1940   19.0830 C.cat   1  LIG1        0.6920
     28  N         27.8170  -15.3650   18.8340 N.pl3   1  LIG1       -0.2330
     29  N         26.3790  -16.9110   17.9680 N.pl3   1  LIG1       -0.2330
     30  H         28.1760  -14.7960   19.5530 H       1  LIG1        0.1740
     31  H         28.2220  -15.3400   17.9370 H       1  LIG1        0.1740
     32  H         25.6250  -17.5420   18.0140 H       1  LIG1        0.1740
     33  H         26.8720  -16.7930   17.1240 H       1  LIG1        0.1740
@<TRIPOS>BOND
     1    33    29    1
     2    16    15    1
     3    17    15    1
     4    31    28    1
     5    29    32    1
     6    29    27    1
     7    15    13   am
     8    28    27    1
     9    28    30    1
    10    27    26    2
    11    13    14    2
    12    13    12    1
    13    12    11    1
    14    26    23    1
    15    23    24   ar
    16    23    22   ar
    17    11     9    1
    18    24    25   ar
    19    22    21   ar
    20     9     8    1
    21     9    10    2
    22     6     7   ar
    23     6     5   ar
    24     8     5    1
    25    25    20   ar
    26     7     2   ar
    27     5     4   ar
    28    21    20   ar
    29    20    18    1
    30     2     1    1
    31     2     3   ar
    32     4     3   ar
    33     1    18    1
    34    18    19    2
@<TRIPOS>MOLECULE
./../dock_file/temp/2748de4610c9ca1ec09a936055979b57/Camostat_Ligand_CID_2536:hmTMPRSS11_A:20230418100237/Camostat_Ligand_CID_2536:hmTMPRSS11_A_out_5.pdbqt
 33 34 0 0 0
SMALL
GASTEIGER

@<TRIPOS>ATOM
      1  O         15.9310   -6.1650   30.2480 O.3     1  LIG1       -0.2750
      2  C         17.2510   -5.9070   30.0420 C.ar    1  LIG1        0.0790
      3  C         17.9710   -5.1650   30.9780 C.ar    1  LIG1        0.0380
      4  C         19.3240   -4.9010   30.7670 C.ar    1  LIG1        0.0100
      5  C         19.9580   -5.3810   29.6210 C.ar    1  LIG1       -0.0490
      6  C         19.2380   -6.1240   28.6850 C.ar    1  LIG1        0.0100
      7  C         17.8840   -6.3870   28.8960 C.ar    1  LIG1        0.0380
      8  C         21.4200   -5.0960   29.3930 C.3     1  LIG1        0.1490
      9  C         22.2640   -6.3480   29.3510 C.2     1  LIG1        0.2630
     10  O         22.7650   -6.8320   28.3450 O.2     1  LIG1       -0.2650
     11  O         22.3860   -6.8630   30.6200 O.3     1  LIG1       -0.3120
     12  C         23.5690   -6.5310   31.3170 C.3     1  LIG1        0.2810
     13  C         24.5000   -7.7250   31.3370 C.2     1  LIG1        0.2430
     14  O         24.0510   -8.8340   31.0330 O.2     1  LIG1       -0.2710
     15  N         25.8300   -7.4970   31.6930 N.am    1  LIG1       -0.3590
     16  C         26.4020   -6.1990   32.0430 C.3     1  LIG1        0.1520
     17  C         26.7660   -8.6130   31.7180 C.3     1  LIG1        0.1520
     18  C         15.6740   -7.0410   31.3050 C.2     1  LIG1        0.2980
     19  O         16.4360   -7.9010   31.7190 O.2     1  LIG1       -0.2590
     20  C         14.3210   -6.8130   31.8730 C.ar    1  LIG1        0.0400
     21  C         13.7840   -5.5260   31.8990 C.ar    1  LIG1        0.0200
     22  C         12.5130   -5.3120   32.4320 C.ar    1  LIG1        0.0330
     23  C         11.7790   -6.3830   32.9400 C.ar    1  LIG1        0.0750
     24  C         12.3160   -7.6710   32.9150 C.ar    1  LIG1        0.0330
     25  C         13.5870   -7.8850   32.3810 C.ar    1  LIG1        0.0200
     26  N         10.5040   -6.1680   33.4750 N.pl3   1  LIG1       -0.0660
     27  C          9.4700   -6.1710   32.6690 C.cat   1  LIG1        0.6920
     28  N          9.4760   -6.3660   31.3050 N.pl3   1  LIG1       -0.2330
     29  N          8.2010   -5.9630   33.1550 N.pl3   1  LIG1       -0.2330
     30  H         10.3250   -6.5250   30.8340 H       1  LIG1        0.1740
     31  H          8.6290   -6.3450   30.8020 H       1  LIG1        0.1740
     32  H          8.0600   -5.8110   34.1170 H       1  LIG1        0.1740
     33  H          7.4320   -5.9680   32.5390 H       1  LIG1        0.1740
@<TRIPOS>BOND
     1    10     9    2
     2     6     7   ar
     3     6     5   ar
     4     7     2   ar
     5     9     8    1
     6     9    11    1
     7     8     5    1
     8     5     4   ar
     9     2     1    1
    10     2     3   ar
    11     1    18    1
    12    11    12    1
    13     4     3   ar
    14    31    28    1
    15    30    28    1
    16    14    13    2
    17    18    19    2
    18    18    20    1
    19    28    27    1
    20    12    13    1
    21    13    15   am
    22    15    17    1
    23    15    16    1
    24    20    21   ar
    25    20    25   ar
    26    21    22   ar
    27    25    24   ar
    28    22    23   ar
    29    33    29    1
    30    27    29    1
    31    27    26    2
    32    24    23   ar
    33    23    26    1
    34    29    32    1
@<TRIPOS>MOLECULE
./../dock_file/temp/2748de4610c9ca1ec09a936055979b57/Camostat_Ligand_CID_2536:hmTMPRSS11_A:20230418100237/Camostat_Ligand_CID_2536:hmTMPRSS11_A_out_5.pdbqt
 33 34 0 0 0
SMALL
GASTEIGER

@<TRIPOS>ATOM
      1  O         14.5520  -13.4830   35.2240 O.3     1  LIG1       -0.2750
      2  C         14.1770  -12.2690   34.7360 C.ar    1  LIG1        0.0790
      3  C         13.0760  -11.6070   35.2810 C.ar    1  LIG1        0.0380
      4  C         12.6920  -10.3640   34.7800 C.ar    1  LIG1        0.0100
      5  C         13.4090   -9.7810   33.7350 C.ar    1  LIG1       -0.0490
      6  C         14.5100  -10.4430   33.1900 C.ar    1  LIG1        0.0100
      7  C         14.8940  -11.6870   33.6910 C.ar    1  LIG1        0.0380
      8  C         12.9950   -8.4370   33.1940 C.3     1  LIG1        0.1490
      9  C         13.5970   -7.2820   33.9600 C.2     1  LIG1        0.2630
     10  O         14.7610   -6.9130   33.8850 O.2     1  LIG1       -0.2650
     11  O         12.6340   -6.7070   34.7540 O.3     1  LIG1       -0.3120
     12  C         12.0260   -5.5360   34.2500 C.3     1  LIG1        0.2810
     13  C         10.5270   -5.7350   34.1710 C.2     1  LIG1        0.2430
     14  O          9.8850   -5.8310   35.2200 O.2     1  LIG1       -0.2710
     15  N          9.9530   -5.7910   32.9000 N.am    1  LIG1       -0.3590
     16  C         10.6770   -5.6680   31.6370 C.3     1  LIG1        0.1520
     17  C          8.5120   -5.9730   32.7730 C.3     1  LIG1        0.1520
     18  C         13.6350  -14.5090   34.9800 C.2     1  LIG1        0.2980
     19  O         12.5430  -14.6290   35.5120 O.2     1  LIG1       -0.2590
     20  C         14.1640  -15.4730   33.9820 C.ar    1  LIG1        0.0400
     21  C         13.7260  -15.4180   32.6590 C.ar    1  LIG1        0.0200
     22  C         14.2230  -16.3240   31.7220 C.ar    1  LIG1        0.0330
     23  C         15.1580  -17.2850   32.1070 C.ar    1  LIG1        0.0750
     24  C         15.5960  -17.3400   33.4300 C.ar    1  LIG1        0.0330
     25  C         15.0990  -16.4340   34.3680 C.ar    1  LIG1        0.0200
     26  N         15.6560  -18.1930   31.1670 N.pl3   1  LIG1       -0.0660
     27  C         15.0780  -19.3640   31.0480 C.cat   1  LIG1        0.6920
     28  N         13.9960  -19.8360   31.7600 N.pl3   1  LIG1       -0.2330
     29  N         15.5370  -20.2840   30.1360 N.pl3   1  LIG1       -0.2330
     30  H         13.5740  -19.2720   32.4460 H       1  LIG1        0.1740
     31  H         13.6470  -20.7400   31.5820 H       1  LIG1        0.1740
     32  H         16.3070  -20.0680   29.5630 H       1  LIG1        0.1740
     33  H         15.0940  -21.1600   30.0560 H       1  LIG1        0.1740
@<TRIPOS>BOND
     1    32    29    1
     2    33    29    1
     3    29    27    1
     4    27    26    2
     5    27    28    1
     6    26    23    1
     7    31    28    1
     8    16    15    1
     9    22    23   ar
    10    22    21   ar
    11    28    30    1
    12    23    24   ar
    13    21    20   ar
    14    17    15    1
    15    15    13   am
    16     6     7   ar
    17     6     5   ar
    18     8     5    1
    19     8     9    1
    20    24    25   ar
    21     7     2   ar
    22     5     4   ar
    23    10     9    2
    24     9    11    1
    25    20    25   ar
    26    20    18    1
    27    13    12    1
    28    13    14    2
    29    12    11    1
    30     2     1    1
    31     2     3   ar
    32     4     3   ar
    33    18     1    1
    34    18    19    2
@<TRIPOS>MOLECULE
./../dock_file/temp/2748de4610c9ca1ec09a936055979b57/Camostat_Ligand_CID_2536:hmTMPRSS11_A:20230418100237/Camostat_Ligand_CID_2536:hmTMPRSS11_A_out_5.pdbqt
 33 34 0 0 0
SMALL
GASTEIGER

@<TRIPOS>ATOM
      1  O         16.2460   -7.4210   33.5510 O.3     1  LIG1       -0.2750
      2  C         17.0560   -7.2610   32.4690 C.ar    1  LIG1        0.0790
      3  C         18.0870   -8.1690   32.2280 C.ar    1  LIG1        0.0380
      4  C         18.9170   -8.0040   31.1200 C.ar    1  LIG1        0.0100
      5  C         18.7160   -6.9310   30.2510 C.ar    1  LIG1       -0.0490
      6  C         17.6850   -6.0220   30.4920 C.ar    1  LIG1        0.0100
      7  C         16.8550   -6.1880   31.6010 C.ar    1  LIG1        0.0380
      8  C         19.6120   -6.7520   29.0530 C.3     1  LIG1        0.1490
      9  C         20.9040   -6.0410   29.3850 C.2     1  LIG1        0.2630
     10  O         20.9940   -4.9000   29.8150 O.2     1  LIG1       -0.2650
     11  O         21.9660   -6.8760   29.1290 O.3     1  LIG1       -0.3120
     12  C         22.9800   -6.9140   30.1110 C.3     1  LIG1        0.2810
     13  C         22.5800   -7.8650   31.2200 C.2     1  LIG1        0.2430
     14  O         22.4670   -9.0660   30.9590 O.2     1  LIG1       -0.2710
     15  N         22.3700   -7.3210   32.4880 N.am    1  LIG1       -0.3590
     16  C         22.5090   -5.9100   32.8380 C.3     1  LIG1        0.1520
     17  C         21.9930   -8.1980   33.5890 C.3     1  LIG1        0.1520
     18  C         15.3220   -8.4620   33.4270 C.2     1  LIG1        0.2980
     19  O         15.5640   -9.6510   33.5670 O.2     1  LIG1       -0.2590
     20  C         13.9750   -7.9420   33.0800 C.ar    1  LIG1        0.0400
     21  C         12.8830   -8.8080   33.0370 C.ar    1  LIG1        0.0200
     22  C         11.6180   -8.3200   32.7110 C.ar    1  LIG1        0.0330
     23  C         11.4440   -6.9650   32.4270 C.ar    1  LIG1        0.0750
     24  C         12.5360   -6.0980   32.4690 C.ar    1  LIG1        0.0330
     25  C         13.8020   -6.5870   32.7950 C.ar    1  LIG1        0.0200
     26  N         10.1750   -6.4760   32.1000 N.pl3   1  LIG1       -0.0660
     27  C          9.3810   -6.0790   33.0650 C.cat   1  LIG1        0.6920
     28  N          9.6450   -6.0820   34.4180 N.pl3   1  LIG1       -0.2330
     29  N          8.1260   -5.5910   32.7860 N.pl3   1  LIG1       -0.2330
     30  H         10.5110   -6.4090   34.7490 H       1  LIG1        0.1740
     31  H          8.9650   -5.7590   35.0520 H       1  LIG1        0.1740
     32  H          7.8150   -5.5360   31.8540 H       1  LIG1        0.1740
     33  H          7.5390   -5.2960   33.5200 H       1  LIG1        0.1740
@<TRIPOS>BOND
     1     8     9    1
     2     8     5    1
     3    11     9    1
     4    11    12    1
     5     9    10    2
     6    12    13    1
     7     5     6   ar
     8     5     4   ar
     9     6     7   ar
    10    14    13    2
    11     4     3   ar
    12    13    15   am
    13     7     2   ar
    14    32    29    1
    15    26    23    1
    16    26    27    2
    17     3     2   ar
    18    23    24   ar
    19    23    22   ar
    20    24    25   ar
    21     2     1    1
    22    15    16    1
    23    15    17    1
    24    22    21   ar
    25    29    27    1
    26    29    33    1
    27    25    20   ar
    28    21    20   ar
    29    27    28    1
    30    20    18    1
    31    18     1    1
    32    18    19    2
    33    28    30    1
    34    28    31    1
@<TRIPOS>MOLECULE
./../dock_file/temp/2748de4610c9ca1ec09a936055979b57/Camostat_Ligand_CID_2536:hmTMPRSS11_A:20230418100237/Camostat_Ligand_CID_2536:hmTMPRSS11_A_out_5.pdbqt
 33 34 0 0 0
SMALL
GASTEIGER

@<TRIPOS>ATOM
      1  O         27.0540   -7.8030   20.8140 O.3     1  LIG1       -0.2750
      2  C         27.5750   -7.4690   19.6020 C.ar    1  LIG1        0.0790
      3  C         26.8200   -6.7180   18.7000 C.ar    1  LIG1        0.0380
      4  C         27.3540   -6.3760   17.4590 C.ar    1  LIG1        0.0100
      5  C         28.6450   -6.7830   17.1180 C.ar    1  LIG1       -0.0490
      6  C         29.4000   -7.5330   18.0200 C.ar    1  LIG1        0.0100
      7  C         28.8650   -7.8760   19.2620 C.ar    1  LIG1        0.0380
      8  C         29.2220   -6.4130   15.7770 C.3     1  LIG1        0.1490
      9  C         28.7530   -7.3210   14.6630 C.2     1  LIG1        0.2630
     10  O         27.7850   -7.1180   13.9440 O.2     1  LIG1       -0.2650
     11  O         29.5850   -8.4120   14.5800 O.3     1  LIG1       -0.3120
     12  C         28.9920   -9.6170   14.1430 C.3     1  LIG1        0.2810
     13  C         28.8210  -10.5570   15.3180 C.2     1  LIG1        0.2430
     14  O         28.1130  -10.2020   16.2640 O.2     1  LIG1       -0.2710
     15  N         29.4770  -11.7870   15.2570 N.am    1  LIG1       -0.3590
     16  C         30.3100  -12.2490   14.1490 C.3     1  LIG1        0.1520
     17  C         29.3360  -12.7290   16.3600 C.3     1  LIG1        0.1520
     18  C         25.9300   -8.6300   20.7480 C.2     1  LIG1        0.2980
     19  O         24.7700   -8.2670   20.8720 O.2     1  LIG1       -0.2590
     20  C         26.3190  -10.0440   20.5190 C.ar    1  LIG1        0.0400
     21  C         26.3250  -10.5650   19.2260 C.ar    1  LIG1        0.0200
     22  C         26.6910  -11.8940   19.0110 C.ar    1  LIG1        0.0330
     23  C         27.0490  -12.7030   20.0900 C.ar    1  LIG1        0.0750
     24  C         27.0430  -12.1820   21.3840 C.ar    1  LIG1        0.0330
     25  C         26.6770  -10.8530   21.5990 C.ar    1  LIG1        0.0200
     26  N         27.4160  -14.0350   19.8740 N.pl3   1  LIG1       -0.0660
     27  C         26.4740  -14.9370   19.7320 C.cat   1  LIG1        0.6920
     28  N         25.1110  -14.7330   19.7700 N.pl3   1  LIG1       -0.2330
     29  N         26.7920  -16.2570   19.5190 N.pl3   1  LIG1       -0.2330
     30  H         24.7520  -13.8290   19.9170 H       1  LIG1        0.1740
     31  H         24.4970  -15.4940   19.6500 H       1  LIG1        0.1740
     32  H         27.7340  -16.5350   19.4700 H       1  LIG1        0.1740
     33  H         26.0750  -16.9250   19.4130 H       1  LIG1        0.1740
@<TRIPOS>BOND
     1    10     9    2
     2    12    11    1
     3    12    13    1
     4    16    15    1
     5    11     9    1
     6     9     8    1
     7    15    13   am
     8    15    17    1
     9    13    14    2
    10     8     5    1
    11     5     4   ar
    12     5     6   ar
    13     4     3   ar
    14     6     7   ar
    15     3     2   ar
    16    22    21   ar
    17    22    23   ar
    18    21    20   ar
    19     7     2   ar
    20    33    29    1
    21    32    29    1
    22    29    27    1
    23     2     1    1
    24    31    28    1
    25    27    28    1
    26    27    26    2
    27    28    30    1
    28    26    23    1
    29    23    24   ar
    30    20    18    1
    31    20    25   ar
    32    18     1    1
    33    18    19    2
    34    24    25   ar
@<TRIPOS>MOLECULE
./../dock_file/temp/2748de4610c9ca1ec09a936055979b57/Camostat_Ligand_CID_2536:hmTMPRSS11_A:20230418100237/Camostat_Ligand_CID_2536:hmTMPRSS11_A_out_5.pdbqt
 33 34 0 0 0
SMALL
GASTEIGER

@<TRIPOS>ATOM
      1  O         29.7780  -11.5970   23.4200 O.3     1  LIG1       -0.2750
      2  C         29.0350  -10.5410   22.9910 C.ar    1  LIG1        0.0790
      3  C         29.2330  -10.0220   21.7110 C.ar    1  LIG1        0.0380
      4  C         28.4710   -8.9400   21.2710 C.ar    1  LIG1        0.0100
      5  C         27.5100   -8.3770   22.1110 C.ar    1  LIG1       -0.0490
      6  C         27.3120   -8.8950   23.3910 C.ar    1  LIG1        0.0100
      7  C         28.0740   -9.9780   23.8300 C.ar    1  LIG1        0.0380
      8  C         26.6860   -7.2080   21.6360 C.3     1  LIG1        0.1490
      9  C         26.0200   -7.4580   20.3030 C.2     1  LIG1        0.2630
     10  O         25.1450   -8.2870   20.0930 O.2     1  LIG1       -0.2650
     11  O         26.5490   -6.6100   19.3590 O.3     1  LIG1       -0.3120
     12  C         26.5790   -7.0930   18.0330 C.3     1  LIG1        0.2810
     13  C         27.9900   -7.5080   17.6730 C.2     1  LIG1        0.2430
     14  O         28.8400   -6.6300   17.4970 O.2     1  LIG1       -0.2710
     15  N         28.2520   -8.8740   17.5700 N.am    1  LIG1       -0.3590
     16  C         27.2780   -9.9420   17.7850 C.3     1  LIG1        0.1520
     17  C         29.5980   -9.3220   17.2350 C.3     1  LIG1        0.1520
     18  C         29.0250  -12.6840   23.8710 C.2     1  LIG1        0.2980
     19  O         28.9330  -13.0550   25.0310 O.2     1  LIG1       -0.2590
     20  C         28.3420  -13.3670   22.7430 C.ar    1  LIG1        0.0400
     21  C         26.9770  -13.6410   22.8180 C.ar    1  LIG1        0.0200
     22  C         26.3360  -14.2820   21.7580 C.ar    1  LIG1        0.0330
     23  C         27.0590  -14.6500   20.6240 C.ar    1  LIG1        0.0750
     24  C         28.4250  -14.3750   20.5480 C.ar    1  LIG1        0.0330
     25  C         29.0670  -13.7340   21.6080 C.ar    1  LIG1        0.0200
     26  N         26.4160  -15.2930   19.5610 N.pl3   1  LIG1       -0.0660
     27  C         26.5620  -16.5880   19.4220 C.cat   1  LIG1        0.6920
     28  N         27.2990  -17.4360   20.2210 N.pl3   1  LIG1       -0.2330
     29  N         25.9460  -17.2580   18.3910 N.pl3   1  LIG1       -0.2330
     30  H         27.7900  -17.0790   20.9960 H       1  LIG1        0.1740
     31  H         27.3340  -18.3980   20.0160 H       1  LIG1        0.1740
     32  H         25.3880  -16.7650   17.7480 H       1  LIG1        0.1740
     33  H         26.0630  -18.2320   18.2980 H       1  LIG1        0.1740
@<TRIPOS>BOND
     1    17    15    1
     2    14    13    2
     3    15    13   am
     4    15    16    1
     5    13    12    1
     6    32    29    1
     7    12    11    1
     8    33    29    1
     9    29    27    1
    10    11     9    1
    11    27    26    2
    12    27    28    1
    13    26    23    1
    14    31    28    1
    15    10     9    2
    16    28    30    1
    17     9     8    1
    18    24    23   ar
    19    24    25   ar
    20    23    22   ar
    21     4     3   ar
    22     4     5   ar
    23    25    20   ar
    24     8     5    1
    25     3     2   ar
    26    22    21   ar
    27     5     6   ar
    28    20    21   ar
    29    20    18    1
    30     2     1    1
    31     2     7   ar
    32     6     7   ar
    33     1    18    1
    34    18    19    2
@<TRIPOS>MOLECULE
./../dock_file/temp/2748de4610c9ca1ec09a936055979b57/Camostat_Ligand_CID_2536:hmTMPRSS11_A:20230418100237/Camostat_Ligand_CID_2536:hmTMPRSS11_A_out_5.pdbqt
 33 34 0 0 0
SMALL
GASTEIGER

@<TRIPOS>ATOM
      1  O         16.2130  -10.8760   34.4510 O.3     1  LIG1       -0.2750
      2  C         15.8290  -12.1660   34.2470 C.ar    1  LIG1        0.0790
      3  C         16.7290  -13.2070   34.4760 C.ar    1  LIG1        0.0380
      4  C         16.3350  -14.5280   34.2670 C.ar    1  LIG1        0.0100
      5  C         15.0400  -14.8090   33.8310 C.ar    1  LIG1       -0.0490
      6  C         14.1400  -13.7680   33.6020 C.ar    1  LIG1        0.0100
      7  C         14.5340  -12.4470   33.8110 C.ar    1  LIG1        0.0380
      8  C         14.6140  -16.2370   33.6050 C.3     1  LIG1        0.1490
      9  C         14.5140  -16.5970   32.1410 C.2     1  LIG1        0.2630
     10  O         13.6830  -16.1580   31.3590 O.2     1  LIG1       -0.2650
     11  O         15.5040  -17.4970   31.8210 O.3     1  LIG1       -0.3120
     12  C         15.1460  -18.5240   30.9210 C.3     1  LIG1        0.2810
     13  C         16.2240  -18.6750   29.8670 C.2     1  LIG1        0.2430
     14  O         16.1770  -17.9590   28.8640 O.2     1  LIG1       -0.2710
     15  N         17.2220  -19.6220   30.1010 N.am    1  LIG1       -0.3590
     16  C         17.3190  -20.4770   31.2820 C.3     1  LIG1        0.1520
     17  C         18.2850  -19.7980   29.1200 C.3     1  LIG1        0.1520
     18  C         16.2380  -10.0940   33.2940 C.2     1  LIG1        0.2980
     19  O         17.0510  -10.1900   32.3870 O.2     1  LIG1       -0.2590
     20  C         15.1400   -9.0940   33.2990 C.ar    1  LIG1        0.0400
     21  C         14.8910   -8.3260   32.1620 C.ar    1  LIG1        0.0200
     22  C         13.8600   -7.3870   32.1680 C.ar    1  LIG1        0.0330
     23  C         13.0790   -7.2140   33.3100 C.ar    1  LIG1        0.0750
     24  C         13.3280   -7.9820   34.4480 C.ar    1  LIG1        0.0330
     25  C         14.3590   -8.9220   34.4430 C.ar    1  LIG1        0.0200
     26  N         12.0450   -6.2720   33.3150 N.pl3   1  LIG1       -0.0660
     27  C         10.8500   -6.6410   32.9200 C.cat   1  LIG1        0.6920
     28  N         10.4640   -7.8890   32.4810 N.pl3   1  LIG1       -0.2330
     29  N          9.8060   -5.7450   32.9100 N.pl3   1  LIG1       -0.2330
     30  H         11.1200   -8.6210   32.4390 H       1  LIG1        0.1740
     31  H          9.5310   -8.0470   32.2070 H       1  LIG1        0.1740
     32  H          9.9510   -4.8170   33.2020 H       1  LIG1        0.1740
     33  H          8.9130   -6.0340   32.6110 H       1  LIG1        0.1740
@<TRIPOS>BOND
     1    14    13    2
     2    17    15    1
     3    13    15   am
     4    13    12    1
     5    15    16    1
     6    12    11    1
     7    10     9    2
     8    11     9    1
     9     9     8    1
    10    21    22   ar
    11    21    20   ar
    12    22    23   ar
    13    31    28    1
    14    19    18    2
    15    30    28    1
    16    28    27    1
    17    33    29    1
    18    29    27    1
    19    29    32    1
    20    27    26    2
    21    18    20    1
    22    18     1    1
    23    20    25   ar
    24    23    26    1
    25    23    24   ar
    26     6     7   ar
    27     6     5   ar
    28     8     5    1
    29     7     2   ar
    30     5     4   ar
    31     2     1    1
    32     2     3   ar
    33     4     3   ar
    34    25    24   ar
@<TRIPOS>MOLECULE
./../dock_file/temp/2748de4610c9ca1ec09a936055979b57/Camostat_Ligand_CID_2536:hmTMPRSS11_A:20230418100237/Camostat_Ligand_CID_2536:hmTMPRSS11_A_out_5.pdbqt
 33 34 0 0 0
SMALL
GASTEIGER

@<TRIPOS>ATOM
      1  O         16.0760  -21.9610   30.3650 O.3     1  LIG1       -0.2750
      2  C         15.5850  -20.8340   30.9490 C.ar    1  LIG1        0.0790
      3  C         14.7400  -20.9330   32.0550 C.ar    1  LIG1        0.0380
      4  C         14.2370  -19.7790   32.6530 C.ar    1  LIG1        0.0100
      5  C         14.5790  -18.5240   32.1470 C.ar    1  LIG1       -0.0490
      6  C         15.4240  -18.4260   31.0410 C.ar    1  LIG1        0.0100
      7  C         15.9270  -19.5810   30.4430 C.ar    1  LIG1        0.0380
      8  C         14.0350  -17.2770   32.7930 C.3     1  LIG1        0.1490
      9  C         13.6100  -16.2300   31.7900 C.2     1  LIG1        0.2630
     10  O         12.9490  -16.4420   30.7820 O.2     1  LIG1       -0.2650
     11  O         14.0800  -14.9990   32.1830 O.3     1  LIG1       -0.3120
     12  C         14.8730  -14.9780   33.3510 C.3     1  LIG1        0.2810
     13  C         14.8060  -13.6050   33.9860 C.2     1  LIG1        0.2430
     14  O         13.7390  -12.9850   33.9510 O.2     1  LIG1       -0.2710
     15  N         15.9670  -13.1190   34.5890 N.am    1  LIG1       -0.3590
     16  C         17.2430  -13.8270   34.6630 C.3     1  LIG1        0.1520
     17  C         15.9500  -11.8060   35.2210 C.3     1  LIG1        0.1520
     18  C         17.3760  -22.2900   30.7540 C.2     1  LIG1        0.2980
     19  O         17.7070  -22.7030   31.8550 O.2     1  LIG1       -0.2590
     20  C         18.3410  -22.0590   29.6490 C.ar    1  LIG1        0.0400
     21  C         18.3470  -22.9040   28.5410 C.ar    1  LIG1        0.0200
     22  C         19.2530  -22.6860   27.5030 C.ar    1  LIG1        0.0330
     23  C         20.1540  -21.6240   27.5740 C.ar    1  LIG1        0.0750
     24  C         20.1480  -20.7780   28.6830 C.ar    1  LIG1        0.0330
     25  C         19.2420  -20.9950   29.7210 C.ar    1  LIG1        0.0200
     26  N         21.0620  -21.4060   26.5320 N.pl3   1  LIG1       -0.0660
     27  C         20.7290  -20.5900   25.5610 C.cat   1  LIG1        0.6920
     28  N         19.5490  -19.8900   25.4270 N.pl3   1  LIG1       -0.2330
     29  N         21.5940  -20.3480   24.5190 N.pl3   1  LIG1       -0.2330
     30  H         18.8450  -19.9770   26.1080 H       1  LIG1        0.1740
     31  H         19.4120  -19.3040   24.6470 H       1  LIG1        0.1740
     32  H         22.4730  -20.7880   24.4970 H       1  LIG1        0.1740
     33  H         21.3320  -19.7330   23.7960 H       1  LIG1        0.1740
@<TRIPOS>BOND
     1    33    29    1
     2    32    29    1
     3    29    27    1
     4    31    28    1
     5    28    27    1
     6    28    30    1
     7    27    26    2
     8    26    23    1
     9    22    23   ar
    10    22    21   ar
    11    23    24   ar
    12    21    20   ar
    13    24    25   ar
    14    20    25   ar
    15    20    18    1
    16     1    18    1
    17     1     2    1
    18     7     2   ar
    19     7     6   ar
    20    18    19    2
    21    10     9    2
    22     2     3   ar
    23     6     5   ar
    24     9    11    1
    25     9     8    1
    26     3     4   ar
    27     5     4   ar
    28     5     8    1
    29    11    12    1
    30    12    13    1
    31    14    13    2
    32    13    15   am
    33    15    16    1
    34    15    17    1
