@<TRIPOS>MOLECULE
./../dock_file/temp/a532dc9f5ed69242cba02dd1bfd8034d/Camostat_Ligand_CID_2536:hmTMPRSS6:20230414003330/Camostat_Ligand_CID_2536:hmTMPRSS6_out_2.pdbqt
 33 34 0 0 0
SMALL
GASTEIGER

@<TRIPOS>ATOM
      1  O         -8.5860    2.7980   17.7690 O.3     1  LIG1       -0.2750
      2  C         -8.2560    1.9230   16.7800 C.ar    1  LIG1        0.0790
      3  C         -7.1710    2.1900   15.9440 C.ar    1  LIG1        0.0380
      4  C         -6.8340    1.2940   14.9310 C.ar    1  LIG1        0.0100
      5  C         -7.5810    0.1290   14.7530 C.ar    1  LIG1       -0.0490
      6  C         -8.6660   -0.1380   15.5880 C.ar    1  LIG1        0.0100
      7  C         -9.0030    0.7590   16.6020 C.ar    1  LIG1        0.0380
      8  C         -7.2170   -0.8400   13.6580 C.3     1  LIG1        0.1490
      9  C         -7.5840   -0.3380   12.2810 C.2     1  LIG1        0.2630
     10  O         -8.7220   -0.1470   11.8770 O.2     1  LIG1       -0.2650
     11  O         -6.4390   -0.1270   11.5490 O.3     1  LIG1       -0.3120
     12  C         -6.4010    1.0550   10.7780 C.3     1  LIG1        0.2810
     13  C         -5.6900    2.1460   11.5520 C.2     1  LIG1        0.2430
     14  O         -4.4760    2.0430   11.7430 O.2     1  LIG1       -0.2710
     15  N         -6.4600    3.2200   12.0020 N.am    1  LIG1       -0.3590
     16  C         -7.8950    3.3840   11.7840 C.3     1  LIG1        0.1520
     17  C         -5.8190    4.2980   12.7450 C.3     1  LIG1        0.1520
     18  C         -7.5030    3.2290   18.5390 C.2     1  LIG1        0.2980
     19  O         -6.8850    2.5490   19.3430 O.2     1  LIG1       -0.2590
     20  C         -7.1900    4.6560   18.2710 C.ar    1  LIG1        0.0400
     21  C         -5.9900    5.2040   18.7220 C.ar    1  LIG1        0.0200
     22  C         -5.6960    6.5440   18.4690 C.ar    1  LIG1        0.0330
     23  C         -6.6030    7.3370   17.7670 C.ar    1  LIG1        0.0750
     24  C         -7.8050    6.7890   17.3150 C.ar    1  LIG1        0.0330
     25  C         -8.0980    5.4490   17.5680 C.ar    1  LIG1        0.0200
     26  N         -6.3090    8.6810   17.5140 N.pl3   1  LIG1       -0.0660
     27  C         -6.8570    9.6020   18.2690 C.cat   1  LIG1        0.6920
     28  N         -7.7230    9.4110   19.3240 N.pl3   1  LIG1       -0.2330
     29  N         -6.5930   10.9350   18.0530 N.pl3   1  LIG1       -0.2330
     30  H         -7.9920    8.5010   19.5800 H       1  LIG1        0.1740
     31  H         -8.0720   10.1870   19.8200 H       1  LIG1        0.1740
     32  H         -5.9870   11.2050   17.3270 H       1  LIG1        0.1740
     33  H         -7.0100   11.6180   18.6270 H       1  LIG1        0.1740
@<TRIPOS>BOND
     1    12    11    1
     2    12    13    1
     3    11     9    1
     4    13    14    2
     5    13    15   am
     6    16    15    1
     7    10     9    2
     8    15    17    1
     9     9     8    1
    10     8     5    1
    11     5     4   ar
    12     5     6   ar
    13     4     3   ar
    14     6     7   ar
    15     3     2   ar
    16     7     2   ar
    17     2     1    1
    18    24    25   ar
    19    24    23   ar
    20    32    29    1
    21    26    23    1
    22    26    27    2
    23    25    20   ar
    24    23    22   ar
    25     1    18    1
    26    29    27    1
    27    29    33    1
    28    27    28    1
    29    20    18    1
    30    20    21   ar
    31    22    21   ar
    32    18    19    2
    33    28    30    1
    34    28    31    1
@<TRIPOS>MOLECULE
./../dock_file/temp/a532dc9f5ed69242cba02dd1bfd8034d/Camostat_Ligand_CID_2536:hmTMPRSS6:20230414003330/Camostat_Ligand_CID_2536:hmTMPRSS6_out_2.pdbqt
 33 34 0 0 0
SMALL
GASTEIGER

@<TRIPOS>ATOM
      1  O         -6.6820    5.9270   18.9000 O.3     1  LIG1       -0.2750
      2  C         -7.1920    4.7730   18.3880 C.ar    1  LIG1        0.0790
      3  C         -8.0400    4.8150   17.2810 C.ar    1  LIG1        0.0380
      4  C         -8.5620    3.6330   16.7580 C.ar    1  LIG1        0.0100
      5  C         -8.2350    2.4080   17.3400 C.ar    1  LIG1       -0.0490
      6  C         -7.3870    2.3660   18.4470 C.ar    1  LIG1        0.0100
      7  C         -6.8650    3.5490   18.9710 C.ar    1  LIG1        0.0380
      8  C         -8.7990    1.1300   16.7740 C.3     1  LIG1        0.1490
      9  C         -8.4590    0.9310   15.3150 C.2     1  LIG1        0.2630
     10  O         -9.2670    0.7190   14.4220 O.2     1  LIG1       -0.2650
     11  O         -7.0990    1.0270   15.1440 O.3     1  LIG1       -0.3120
     12  C         -6.6520    1.2980   13.8320 C.3     1  LIG1        0.2810
     13  C         -5.8170    2.5610   13.8290 C.2     1  LIG1        0.2430
     14  O         -5.8200    3.2770   14.8330 O.2     1  LIG1       -0.2710
     15  N         -5.0780    2.8390   12.6780 N.am    1  LIG1       -0.3590
     16  C         -5.0370    2.0100   11.4760 C.3     1  LIG1        0.1520
     17  C         -4.2520    4.0390   12.6300 C.3     1  LIG1        0.1520
     18  C         -5.6320    6.4710   18.1560 C.2     1  LIG1        0.2980
     19  O         -4.5240    5.9740   18.0190 O.2     1  LIG1       -0.2590
     20  C         -6.0230    7.7670   17.5470 C.ar    1  LIG1        0.0400
     21  C         -5.5430    8.1180   16.2850 C.ar    1  LIG1        0.0200
     22  C         -5.9100    9.3360   15.7130 C.ar    1  LIG1        0.0330
     23  C         -6.7570   10.2030   16.4020 C.ar    1  LIG1        0.0750
     24  C         -7.2380    9.8530   17.6640 C.ar    1  LIG1        0.0330
     25  C         -6.8700    8.6350   18.2370 C.ar    1  LIG1        0.0200
     26  N         -7.1260   11.4240   15.8280 N.pl3   1  LIG1       -0.0660
     27  C         -6.4000   12.4880   16.0790 C.cat   1  LIG1        0.6920
     28  N         -5.2730   12.5610   16.8690 N.pl3   1  LIG1       -0.2330
     29  N         -6.7280   13.7070   15.5340 N.pl3   1  LIG1       -0.2330
     30  H         -4.9340   11.7550   17.3180 H       1  LIG1        0.1740
     31  H         -4.8090   13.4220   16.9850 H       1  LIG1        0.1740
     32  H         -7.5140   13.7880   14.9480 H       1  LIG1        0.1740
     33  H         -6.1750   14.4980   15.7300 H       1  LIG1        0.1740
@<TRIPOS>BOND
     1    16    15    1
     2    17    15    1
     3    15    13   am
     4    13    12    1
     5    13    14    2
     6    12    11    1
     7    10     9    2
     8    32    29    1
     9    11     9    1
    10     9     8    1
    11    29    33    1
    12    29    27    1
    13    22    21   ar
    14    22    23   ar
    15    26    27    2
    16    26    23    1
    17    27    28    1
    18    21    20   ar
    19    23    24   ar
    20     4     3   ar
    21     4     5   ar
    22     8     5    1
    23    28    31    1
    24    28    30    1
    25     3     2   ar
    26     5     6   ar
    27    20    18    1
    28    20    25   ar
    29    24    25   ar
    30    19    18    2
    31    18     1    1
    32     2     1    1
    33     2     7   ar
    34     6     7   ar
@<TRIPOS>MOLECULE
./../dock_file/temp/a532dc9f5ed69242cba02dd1bfd8034d/Camostat_Ligand_CID_2536:hmTMPRSS6:20230414003330/Camostat_Ligand_CID_2536:hmTMPRSS6_out_2.pdbqt
 33 34 0 0 0
SMALL
GASTEIGER

@<TRIPOS>ATOM
      1  O         -8.6370    2.9150   17.5630 O.3     1  LIG1       -0.2750
      2  C         -8.3200    1.9430   16.6640 C.ar    1  LIG1        0.0790
      3  C         -7.2620    2.1330   15.7750 C.ar    1  LIG1        0.0380
      4  C         -6.9380    1.1380   14.8540 C.ar    1  LIG1        0.0100
      5  C         -7.6710   -0.0490   14.8220 C.ar    1  LIG1       -0.0490
      6  C         -8.7290   -0.2390   15.7110 C.ar    1  LIG1        0.0100
      7  C         -9.0540    0.7570   16.6330 C.ar    1  LIG1        0.0380
      8  C         -7.3210   -1.1250   13.8270 C.3     1  LIG1        0.1490
      9  C         -8.1380   -1.0430   12.5590 C.2     1  LIG1        0.2630
     10  O         -9.3490   -1.1940   12.4850 O.2     1  LIG1       -0.2650
     11  O         -7.3090   -0.7710   11.4960 O.3     1  LIG1       -0.3120
     12  C         -6.3570   -1.7630   11.1770 C.3     1  LIG1        0.2810
     13  C         -6.7230   -2.4150    9.8590 C.2     1  LIG1        0.2430
     14  O         -7.7070   -1.9970    9.2440 O.2     1  LIG1       -0.2710
     15  N         -5.9090   -3.4560    9.4100 N.am    1  LIG1       -0.3590
     16  C         -4.7290   -3.9670   10.1020 C.3     1  LIG1        0.1520
     17  C         -6.2160   -4.1080    8.1430 C.3     1  LIG1        0.1520
     18  C         -7.5720    3.3200   18.3700 C.2     1  LIG1        0.2980
     19  O         -6.9760    2.6150   19.1710 O.2     1  LIG1       -0.2590
     20  C         -7.2470    4.7520   18.1490 C.ar    1  LIG1        0.0400
     21  C         -8.1420    5.5720   17.4630 C.ar    1  LIG1        0.0200
     22  C         -7.8370    6.9180   17.2560 C.ar    1  LIG1        0.0330
     23  C         -6.6370    7.4430   17.7340 C.ar    1  LIG1        0.0750
     24  C         -5.7410    6.6230   18.4210 C.ar    1  LIG1        0.0330
     25  C         -6.0460    5.2770   18.6280 C.ar    1  LIG1        0.0200
     26  N         -6.3320    8.7920   17.5260 N.pl3   1  LIG1       -0.0660
     27  C         -6.8830    9.6940   18.3030 C.cat   1  LIG1        0.6920
     28  N         -7.7630    9.4760   19.3410 N.pl3   1  LIG1       -0.2330
     29  N         -6.6090   11.0300   18.1310 N.pl3   1  LIG1       -0.2330
     30  H         -8.0410    8.5590   19.5660 H       1  LIG1        0.1740
     31  H         -8.1140   10.2380   19.8560 H       1  LIG1        0.1740
     32  H         -5.9930   11.3190   17.4210 H       1  LIG1        0.1740
     33  H         -7.0300   11.6980   18.7210 H       1  LIG1        0.1740
@<TRIPOS>BOND
     1    17    15    1
     2    14    13    2
     3    15    13   am
     4    15    16    1
     5    13    12    1
     6    12    11    1
     7    11     9    1
     8    10     9    2
     9     9     8    1
    10     8     5    1
    11     5     4   ar
    12     5     6   ar
    13     4     3   ar
    14     6     7   ar
    15     3     2   ar
    16     7     2   ar
    17     2     1    1
    18    22    21   ar
    19    22    23   ar
    20    32    29    1
    21    21    20   ar
    22    26    23    1
    23    26    27    2
    24     1    18    1
    25    23    24   ar
    26    29    27    1
    27    29    33    1
    28    20    18    1
    29    20    25   ar
    30    27    28    1
    31    18    19    2
    32    24    25   ar
    33    28    30    1
    34    28    31    1
@<TRIPOS>MOLECULE
./../dock_file/temp/a532dc9f5ed69242cba02dd1bfd8034d/Camostat_Ligand_CID_2536:hmTMPRSS6:20230414003330/Camostat_Ligand_CID_2536:hmTMPRSS6_out_2.pdbqt
 33 34 0 0 0
SMALL
GASTEIGER

@<TRIPOS>ATOM
      1  O         -8.0770   -5.1690   27.1940 O.3     1  LIG1       -0.2750
      2  C         -7.6230   -5.9760   28.1910 C.ar    1  LIG1        0.0790
      3  C         -6.3390   -6.5160   28.1230 C.ar    1  LIG1        0.0380
      4  C         -5.8750   -7.3440   29.1450 C.ar    1  LIG1        0.0100
      5  C         -6.6950   -7.6320   30.2370 C.ar    1  LIG1       -0.0490
      6  C         -7.9800   -7.0920   30.3040 C.ar    1  LIG1        0.0100
      7  C         -8.4440   -6.2640   29.2820 C.ar    1  LIG1        0.0380
      8  C         -6.1940   -8.5260   31.3410 C.3     1  LIG1        0.1490
      9  C         -6.9190   -9.8500   31.4010 C.2     1  LIG1        0.2630
     10  O         -7.6710  -10.2060   32.2980 O.2     1  LIG1       -0.2650
     11  O         -6.6060  -10.5960   30.2900 O.3     1  LIG1       -0.3120
     12  C         -7.6730  -11.2970   29.6870 C.3     1  LIG1        0.2810
     13  C         -8.3600  -10.4040   28.6750 C.2     1  LIG1        0.2430
     14  O         -7.7340  -10.0530   27.6710 O.2     1  LIG1       -0.2710
     15  N         -9.6800  -10.0350   28.9360 N.am    1  LIG1       -0.3590
     16  C        -10.4590  -10.4420   30.1030 C.3     1  LIG1        0.1520
     17  C        -10.3870   -9.1840   27.9870 C.3     1  LIG1        0.1520
     18  C         -9.0470   -5.7530   26.3770 C.2     1  LIG1        0.2980
     19  O         -8.9550   -6.8390   25.8250 O.2     1  LIG1       -0.2590
     20  C        -10.2340   -4.8700   26.2400 C.ar    1  LIG1        0.0400
     21  C        -10.1550   -3.5320   26.6240 C.ar    1  LIG1        0.0200
     22  C        -11.2700   -2.7030   26.4950 C.ar    1  LIG1        0.0330
     23  C        -12.4630   -3.2120   25.9830 C.ar    1  LIG1        0.0750
     24  C        -12.5420   -4.5510   25.5990 C.ar    1  LIG1        0.0330
     25  C        -11.4270   -5.3800   25.7280 C.ar    1  LIG1        0.0200
     26  N        -13.5800   -2.3810   25.8530 N.pl3   1  LIG1       -0.0660
     27  C        -13.6440   -1.5590   24.8330 C.cat   1  LIG1        0.6920
     28  N        -12.7140   -1.4020   23.8290 N.pl3   1  LIG1       -0.2330
     29  N        -14.7250   -0.7260   24.6690 N.pl3   1  LIG1       -0.2330
     30  H        -11.8910   -1.9410   23.8310 H       1  LIG1        0.1740
     31  H        -12.8720   -0.7470   23.1100 H       1  LIG1        0.1740
     32  H        -15.4620   -0.7420   25.3210 H       1  LIG1        0.1740
     33  H        -14.7620   -0.1140   23.8990 H       1  LIG1        0.1740
@<TRIPOS>BOND
     1    31    28    1
     2    28    30    1
     3    28    27    1
     4    33    29    1
     5    29    27    1
     6    29    32    1
     7    27    26    2
     8    24    25   ar
     9    24    23   ar
    10    25    20   ar
    11    19    18    2
    12    26    23    1
    13    23    22   ar
    14    20    18    1
    15    20    21   ar
    16    18     1    1
    17    22    21   ar
    18     1     2    1
    19    14    13    2
    20    17    15    1
    21     3     2   ar
    22     3     4   ar
    23     2     7   ar
    24    13    15   am
    25    13    12    1
    26    15    16    1
    27     4     5   ar
    28     7     6   ar
    29    12    11    1
    30     5     6   ar
    31     5     8    1
    32    11     9    1
    33     8     9    1
    34     9    10    2
@<TRIPOS>MOLECULE
./../dock_file/temp/a532dc9f5ed69242cba02dd1bfd8034d/Camostat_Ligand_CID_2536:hmTMPRSS6:20230414003330/Camostat_Ligand_CID_2536:hmTMPRSS6_out_2.pdbqt
 33 34 0 0 0
SMALL
GASTEIGER

@<TRIPOS>ATOM
      1  O         -6.5940    5.9540   18.9060 O.3     1  LIG1       -0.2750
      2  C         -7.1290    4.7970   18.4300 C.ar    1  LIG1        0.0790
      3  C         -7.9900    4.8260   17.3320 C.ar    1  LIG1        0.0380
      4  C         -8.5390    3.6410   16.8450 C.ar    1  LIG1        0.0100
      5  C         -8.2260    2.4250   17.4540 C.ar    1  LIG1       -0.0490
      6  C         -7.3650    2.3960   18.5510 C.ar    1  LIG1        0.0100
      7  C         -6.8160    3.5820   19.0390 C.ar    1  LIG1        0.0380
      8  C         -8.8180    1.1430   16.9270 C.3     1  LIG1        0.1490
      9  C         -8.2090    0.7080   15.6150 C.2     1  LIG1        0.2630
     10  O         -7.1300    1.0810   15.1770 O.2     1  LIG1       -0.2650
     11  O         -9.0540   -0.1760   14.9870 O.3     1  LIG1       -0.3120
     12  C         -9.6220   -1.1810   15.8000 C.3     1  LIG1        0.2810
     13  C         -9.8750   -2.4230   14.9710 C.2     1  LIG1        0.2430
     14  O         -9.6790   -2.3750   13.7540 O.2     1  LIG1       -0.2710
     15  N        -10.3120   -3.5660   15.6430 N.am    1  LIG1       -0.3590
     16  C        -10.5420   -3.6660   17.0820 C.3     1  LIG1        0.1520
     17  C        -10.5620   -4.7880   14.8890 C.3     1  LIG1        0.1520
     18  C         -5.5800    6.4890   18.1080 C.2     1  LIG1        0.2980
     19  O         -4.4900    5.9770   17.9010 O.2     1  LIG1       -0.2590
     20  C         -5.9840    7.7980   17.5350 C.ar    1  LIG1        0.0400
     21  C         -5.5590    8.1610   16.2570 C.ar    1  LIG1        0.0200
     22  C         -5.9390    9.3910   15.7190 C.ar    1  LIG1        0.0330
     23  C         -6.7430   10.2580   16.4580 C.ar    1  LIG1        0.0750
     24  C         -7.1680    9.8950   17.7370 C.ar    1  LIG1        0.0330
     25  C         -6.7880    8.6660   18.2750 C.ar    1  LIG1        0.0200
     26  N         -7.1240   11.4910   15.9180 N.pl3   1  LIG1       -0.0660
     27  C         -6.4010   12.5510   16.1880 C.cat   1  LIG1        0.6920
     28  N         -5.2660   12.6110   16.9670 N.pl3   1  LIG1       -0.2330
     29  N         -6.7420   13.7810   15.6760 N.pl3   1  LIG1       -0.2330
     30  H         -4.9170   11.7960   17.3920 H       1  LIG1        0.1740
     31  H         -4.8050   13.4720   17.0980 H       1  LIG1        0.1740
     32  H         -7.5350   13.8730   15.1010 H       1  LIG1        0.1740
     33  H         -6.1900   14.5700   15.8850 H       1  LIG1        0.1740
@<TRIPOS>BOND
     1    14    13    2
     2    17    15    1
     3    13    15   am
     4    13    12    1
     5    11     9    1
     6    11    12    1
     7    32    29    1
     8    10     9    2
     9     9     8    1
    10    15    16    1
    11    29    33    1
    12    29    27    1
    13    22    21   ar
    14    22    23   ar
    15    26    27    2
    16    26    23    1
    17    27    28    1
    18    21    20   ar
    19    23    24   ar
    20     4     3   ar
    21     4     5   ar
    22     8     5    1
    23    28    31    1
    24    28    30    1
    25     3     2   ar
    26     5     6   ar
    27    20    18    1
    28    20    25   ar
    29    24    25   ar
    30    19    18    2
    31    18     1    1
    32     2     1    1
    33     2     7   ar
    34     6     7   ar
@<TRIPOS>MOLECULE
./../dock_file/temp/a532dc9f5ed69242cba02dd1bfd8034d/Camostat_Ligand_CID_2536:hmTMPRSS6:20230414003330/Camostat_Ligand_CID_2536:hmTMPRSS6_out_2.pdbqt
 33 34 0 0 0
SMALL
GASTEIGER

@<TRIPOS>ATOM
      1  O         -6.8980    6.4060   18.2350 O.3     1  LIG1       -0.2750
      2  C         -7.3390    5.1360   18.0230 C.ar    1  LIG1        0.0790
      3  C         -8.3120    4.8870   17.0550 C.ar    1  LIG1        0.0380
      4  C         -8.7630    3.5860   16.8390 C.ar    1  LIG1        0.0100
      5  C         -8.2420    2.5320   17.5890 C.ar    1  LIG1       -0.0490
      6  C         -7.2680    2.7810   18.5570 C.ar    1  LIG1        0.0100
      7  C         -6.8170    4.0830   18.7740 C.ar    1  LIG1        0.0380
      8  C         -8.7290    1.1260   17.3550 C.3     1  LIG1        0.1490
      9  C         -8.9170    0.8030   15.8910 C.2     1  LIG1        0.2630
     10  O         -9.9830    0.8230   15.2920 O.2     1  LIG1       -0.2650
     11  O         -7.7020    0.4840   15.3320 O.3     1  LIG1       -0.3120
     12  C         -7.5870    0.6750   13.9380 C.3     1  LIG1        0.2810
     13  C         -6.5150    1.7070   13.6530 C.2     1  LIG1        0.2430
     14  O         -6.1560    2.4570   14.5640 O.2     1  LIG1       -0.2710
     15  N         -5.9850    1.7420   12.3620 N.am    1  LIG1       -0.3590
     16  C         -6.3730    0.8620   11.2630 C.3     1  LIG1        0.1520
     17  C         -4.9460    2.7120   12.0420 C.3     1  LIG1        0.1520
     18  C         -5.5620    6.6160   17.8840 C.2     1  LIG1        0.2980
     19  O         -4.6350    6.7670   18.6650 O.2     1  LIG1       -0.2590
     20  C         -5.3960    6.6530   16.4080 C.ar    1  LIG1        0.0400
     21  C         -4.8210    5.5710   15.7440 C.ar    1  LIG1        0.0200
     22  C         -4.6650    5.6050   14.3580 C.ar    1  LIG1        0.0330
     23  C         -5.0840    6.7230   13.6370 C.ar    1  LIG1        0.0750
     24  C         -5.6590    7.8060   14.3010 C.ar    1  LIG1        0.0330
     25  C         -5.8150    7.7720   15.6870 C.ar    1  LIG1        0.0200
     26  N         -4.9280    6.7580   12.2470 N.pl3   1  LIG1       -0.0660
     27  C         -5.8870    6.2810   11.4900 C.cat   1  LIG1        0.6920
     28  N         -7.0790    5.7270   11.9020 N.pl3   1  LIG1       -0.2330
     29  N         -5.7720    6.2970   10.1190 N.pl3   1  LIG1       -0.2330
     30  H         -7.2830    5.6560   12.8620 H       1  LIG1        0.1740
     31  H         -7.7260    5.4000   11.2360 H       1  LIG1        0.1740
     32  H         -4.9650    6.6690    9.6970 H       1  LIG1        0.1740
     33  H         -6.4990    5.9370    9.5610 H       1  LIG1        0.1740
@<TRIPOS>BOND
     1    33    29    1
     2    32    29    1
     3    29    27    1
     4    31    28    1
     5    16    15    1
     6    27    28    1
     7    27    26    2
     8    28    30    1
     9    17    15    1
    10    26    23    1
    11    15    13   am
    12    23    24   ar
    13    23    22   ar
    14    13    12    1
    15    13    14    2
    16    12    11    1
    17    24    25   ar
    18    22    21   ar
    19    10     9    2
    20    11     9    1
    21    25    20   ar
    22    21    20   ar
    23     9     8    1
    24    20    18    1
    25     4     3   ar
    26     4     5   ar
    27     3     2   ar
    28     8     5    1
    29     5     6   ar
    30    18     1    1
    31    18    19    2
    32     2     1    1
    33     2     7   ar
    34     6     7   ar
@<TRIPOS>MOLECULE
./../dock_file/temp/a532dc9f5ed69242cba02dd1bfd8034d/Camostat_Ligand_CID_2536:hmTMPRSS6:20230414003330/Camostat_Ligand_CID_2536:hmTMPRSS6_out_2.pdbqt
 33 34 0 0 0
SMALL
GASTEIGER

@<TRIPOS>ATOM
      1  O         -8.7290    0.5600   14.7950 O.3     1  LIG1       -0.2750
      2  C         -9.1570   -0.5410   15.4700 C.ar    1  LIG1        0.0790
      3  C         -8.9910   -1.8100   14.9130 C.ar    1  LIG1        0.0380
      4  C         -9.4290   -2.9380   15.6050 C.ar    1  LIG1        0.0100
      5  C        -10.0330   -2.7990   16.8550 C.ar    1  LIG1       -0.0490
      6  C        -10.2000   -1.5300   17.4120 C.ar    1  LIG1        0.0100
      7  C         -9.7610   -0.4010   16.7190 C.ar    1  LIG1        0.0380
      8  C        -10.5070   -4.0180   17.6030 C.3     1  LIG1        0.1490
      9  C        -12.0080   -4.1860   17.5640 C.2     1  LIG1        0.2630
     10  O        -12.7800   -3.8740   18.4600 O.2     1  LIG1       -0.2650
     11  O        -12.3760   -4.7450   16.3630 O.3     1  LIG1       -0.3120
     12  C        -11.9640   -6.0780   16.1430 C.3     1  LIG1        0.2810
     13  C        -11.4330   -6.2190   14.7320 C.2     1  LIG1        0.2430
     14  O        -10.2120   -6.2000   14.5520 O.2     1  LIG1       -0.2710
     15  N        -12.3660   -6.3750   13.7060 N.am    1  LIG1       -0.3590
     16  C        -13.8160   -6.4180   13.8800 C.3     1  LIG1        0.1520
     17  C        -11.9030   -6.5240   12.3320 C.3     1  LIG1        0.1520
     18  C         -7.3740    0.8520   14.9720 C.2     1  LIG1        0.2980
     19  O         -6.4410    0.1490   14.6150 O.2     1  LIG1       -0.2590
     20  C         -7.1940    2.1460   15.6780 C.ar    1  LIG1        0.0400
     21  C         -7.4920    2.2460   17.0360 C.ar    1  LIG1        0.0200
     22  C         -7.3210    3.4620   17.7000 C.ar    1  LIG1        0.0330
     23  C         -6.8540    4.5770   17.0050 C.ar    1  LIG1        0.0750
     24  C         -6.5550    4.4770   15.6460 C.ar    1  LIG1        0.0330
     25  C         -6.7260    3.2620   14.9820 C.ar    1  LIG1        0.0200
     26  N         -6.6830    5.7950   17.6710 N.pl3   1  LIG1       -0.0660
     27  C         -7.7310    6.5550   17.8800 C.cat   1  LIG1        0.6920
     28  N         -9.0340    6.2990   17.5130 N.pl3   1  LIG1       -0.2330
     29  N         -7.6060    7.7600   18.5300 N.pl3   1  LIG1       -0.2330
     30  H         -9.2580    5.4670   17.0380 H       1  LIG1        0.1740
     31  H         -9.7420    6.9510   17.7250 H       1  LIG1        0.1740
     32  H         -6.7230    8.0600   18.8450 H       1  LIG1        0.1740
     33  H         -8.4000    8.3220   18.6820 H       1  LIG1        0.1740
@<TRIPOS>BOND
     1    17    15    1
     2    15    16    1
     3    15    13   am
     4    14    13    2
     5    19    18    2
     6    13    12    1
     7     1    18    1
     8     1     2    1
     9     3     2   ar
    10     3     4   ar
    11    18    20    1
    12    25    24   ar
    13    25    20   ar
    14     2     7   ar
    15     4     5   ar
    16    24    23   ar
    17    20    21   ar
    18    12    11    1
    19    11     9    1
    20     7     6   ar
    21     5     6   ar
    22     5     8    1
    23    23    26    1
    24    23    22   ar
    25    21    22   ar
    26    30    28    1
    27    28    31    1
    28    28    27    1
    29     9     8    1
    30     9    10    2
    31    26    27    2
    32    27    29    1
    33    29    33    1
    34    29    32    1
@<TRIPOS>MOLECULE
./../dock_file/temp/a532dc9f5ed69242cba02dd1bfd8034d/Camostat_Ligand_CID_2536:hmTMPRSS6:20230414003330/Camostat_Ligand_CID_2536:hmTMPRSS6_out_2.pdbqt
 33 34 0 0 0
SMALL
GASTEIGER

@<TRIPOS>ATOM
      1  O         -8.0560    4.4930   18.7070 O.3     1  LIG1       -0.2750
      2  C         -7.3670    5.4530   18.0320 C.ar    1  LIG1        0.0790
      3  C         -5.9970    5.6100   18.2450 C.ar    1  LIG1        0.0380
      4  C         -5.2910    6.5930   17.5540 C.ar    1  LIG1        0.0100
      5  C         -5.9540    7.4210   16.6470 C.ar    1  LIG1       -0.0490
      6  C         -7.3240    7.2650   16.4340 C.ar    1  LIG1        0.0100
      7  C         -8.0300    6.2810   17.1260 C.ar    1  LIG1        0.0380
      8  C         -5.1920    8.4840   15.9000 C.3     1  LIG1        0.1490
      9  C         -5.2730    8.3220   14.4000 C.2     1  LIG1        0.2630
     10  O         -5.5540    9.2090   13.6060 O.2     1  LIG1       -0.2650
     11  O         -4.9800    7.0220   14.0620 O.3     1  LIG1       -0.3120
     12  C         -4.9720    6.7230   12.6820 C.3     1  LIG1        0.2810
     13  C         -3.6000    6.2260   12.2770 C.2     1  LIG1        0.2430
     14  O         -3.2390    5.1080   12.6520 O.2     1  LIG1       -0.2710
     15  N         -2.8190    7.0700   11.4870 N.am    1  LIG1       -0.3590
     16  C         -3.2170    8.3930   11.0110 C.3     1  LIG1        0.1520
     17  C         -1.4940    6.6330   11.0640 C.3     1  LIG1        0.1520
     18  C         -7.4270    3.2460   18.7340 C.2     1  LIG1        0.2980
     19  O         -6.7640    2.8030   19.6590 O.2     1  LIG1       -0.2590
     20  C         -7.6510    2.5060   17.4660 C.ar    1  LIG1        0.0400
     21  C         -6.9210    2.8410   16.3260 C.ar    1  LIG1        0.0200
     22  C         -7.1310    2.1450   15.1350 C.ar    1  LIG1        0.0330
     23  C         -8.0700    1.1160   15.0840 C.ar    1  LIG1        0.0750
     24  C         -8.8000    0.7800   16.2250 C.ar    1  LIG1        0.0330
     25  C         -8.5900    1.4760   17.4160 C.ar    1  LIG1        0.0200
     26  N         -8.2800    0.4180   13.8900 N.pl3   1  LIG1       -0.0660
     27  C         -7.5210   -0.6160   13.6180 C.cat   1  LIG1        0.6920
     28  N         -6.4990   -1.1270   14.3890 N.pl3   1  LIG1       -0.2330
     29  N         -7.6950   -1.3290   12.4550 N.pl3   1  LIG1       -0.2330
     30  H         -6.2730   -0.7050   15.2490 H       1  LIG1        0.1740
     31  H         -5.9950   -1.9140   14.0780 H       1  LIG1        0.1740
     32  H         -8.3950   -1.0650   11.8160 H       1  LIG1        0.1740
     33  H         -7.1190   -2.1040   12.2630 H       1  LIG1        0.1740
@<TRIPOS>BOND
     1    16    15    1
     2    17    15    1
     3    15    13   am
     4    32    29    1
     5    33    29    1
     6    13    14    2
     7    13    12    1
     8    29    27    1
     9    12    11    1
    10    10     9    2
    11    27    26    2
    12    27    28    1
    13    26    23    1
    14    11     9    1
    15    31    28    1
    16    28    30    1
    17     9     8    1
    18    23    22   ar
    19    23    24   ar
    20    22    21   ar
    21     8     5    1
    22    24    25   ar
    23    21    20   ar
    24     6     5   ar
    25     6     7   ar
    26     5     4   ar
    27     7     2   ar
    28    25    20   ar
    29    20    18    1
    30     4     3   ar
    31     2     3   ar
    32     2     1    1
    33     1    18    1
    34    18    19    2
@<TRIPOS>MOLECULE
./../dock_file/temp/a532dc9f5ed69242cba02dd1bfd8034d/Camostat_Ligand_CID_2536:hmTMPRSS6:20230414003330/Camostat_Ligand_CID_2536:hmTMPRSS6_out_2.pdbqt
 33 34 0 0 0
SMALL
GASTEIGER

@<TRIPOS>ATOM
      1  O         -5.9480   11.6550   17.9610 O.3     1  LIG1       -0.2750
      2  C         -6.1690   12.4840   19.0170 C.ar    1  LIG1        0.0790
      3  C         -7.1740   12.1890   19.9390 C.ar    1  LIG1        0.0380
      4  C         -7.4000   13.0380   21.0210 C.ar    1  LIG1        0.0100
      5  C         -6.6210   14.1850   21.1830 C.ar    1  LIG1       -0.0490
      6  C         -5.6160   14.4800   20.2610 C.ar    1  LIG1        0.0100
      7  C         -5.3900   13.6300   19.1790 C.ar    1  LIG1        0.0380
      8  C         -6.8660   15.1030   22.3510 C.3     1  LIG1        0.1490
      9  C         -6.2240   14.6140   23.6290 C.2     1  LIG1        0.2630
     10  O         -5.2550   13.8720   23.6960 O.2     1  LIG1       -0.2650
     11  O         -6.8980   15.1340   24.7090 O.3     1  LIG1       -0.3120
     12  C         -8.2740   14.8310   24.7910 C.3     1  LIG1        0.2810
     13  C         -8.4810   13.6490   25.7140 C.2     1  LIG1        0.2430
     14  O         -8.0640   13.7200   26.8730 O.2     1  LIG1       -0.2710
     15  N         -9.1470   12.5380   25.1950 N.am    1  LIG1       -0.3590
     16  C         -9.6680   12.4210   23.8340 C.3     1  LIG1        0.1520
     17  C         -9.3780   11.3780   26.0470 C.3     1  LIG1        0.1520
     18  C         -7.1010   11.2970   17.2600 C.2     1  LIG1        0.2980
     19  O         -7.9380   12.0710   16.8220 O.2     1  LIG1       -0.2590
     20  C         -7.2060    9.8220   17.1180 C.ar    1  LIG1        0.0400
     21  C         -6.0850    9.0760   16.7560 C.ar    1  LIG1        0.0200
     22  C         -6.1830    7.6910   16.6230 C.ar    1  LIG1        0.0330
     23  C         -7.4020    7.0520   16.8510 C.ar    1  LIG1        0.0750
     24  C         -8.5230    7.7990   17.2140 C.ar    1  LIG1        0.0330
     25  C         -8.4250    9.1840   17.3460 C.ar    1  LIG1        0.0200
     26  N         -7.5000    5.6630   16.7180 N.pl3   1  LIG1       -0.0660
     27  C         -7.2670    4.9080   17.7650 C.cat   1  LIG1        0.6920
     28  N         -6.9230    5.3220   19.0330 N.pl3   1  LIG1       -0.2330
     29  N         -7.3530    3.5380   17.6760 N.pl3   1  LIG1       -0.2330
     30  H         -6.8280    6.2820   19.2280 H       1  LIG1        0.1740
     31  H         -6.7710    4.6570   19.7440 H       1  LIG1        0.1740
     32  H         -7.5920    3.1150   16.8200 H       1  LIG1        0.1740
     33  H         -7.1760    2.9820   18.4690 H       1  LIG1        0.1740
@<TRIPOS>BOND
     1    22    21   ar
     2    22    23   ar
     3    26    23    1
     4    26    27    2
     5    21    20   ar
     6    32    29    1
     7    19    18    2
     8    23    24   ar
     9    20    18    1
    10    20    25   ar
    11    24    25   ar
    12    18     1    1
    13    29    27    1
    14    29    33    1
    15    27    28    1
    16     1     2    1
    17     2     7   ar
    18     2     3   ar
    19    28    30    1
    20    28    31    1
    21     7     6   ar
    22     3     4   ar
    23     6     5   ar
    24     4     5   ar
    25     5     8    1
    26     8     9    1
    27     9    10    2
    28     9    11    1
    29    16    15    1
    30    11    12    1
    31    12    13    1
    32    15    13   am
    33    15    17    1
    34    13    14    2
