@<TRIPOS>MOLECULE
./../dock_file/temp/a532dc9f5ed69242cba02dd1bfd8034d/Camostat_Ligand_CID_2536:hmTMPRSS6:20230414003330/Camostat_Ligand_CID_2536:hmTMPRSS6_out_4.pdbqt
 33 34 0 0 0
SMALL
GASTEIGER

@<TRIPOS>ATOM
      1  O         13.9760   -8.9210   32.9500 O.3     1  LIG1       -0.2750
      2  C         14.5230   -7.8600   32.2960 C.ar    1  LIG1        0.0790
      3  C         13.9980   -6.5800   32.4800 C.ar    1  LIG1        0.0380
      4  C         14.5580   -5.4940   31.8100 C.ar    1  LIG1        0.0100
      5  C         15.6450   -5.6860   30.9560 C.ar    1  LIG1       -0.0490
      6  C         16.1700   -6.9650   30.7720 C.ar    1  LIG1        0.0100
      7  C         15.6090   -8.0520   31.4420 C.ar    1  LIG1        0.0380
      8  C         16.2510   -4.5120   30.2320 C.3     1  LIG1        0.1490
      9  C         15.2700   -3.8110   29.3210 C.2     1  LIG1        0.2630
     10  O         14.6480   -2.7950   29.5980 O.2     1  LIG1       -0.2650
     11  O         15.1830   -4.4900   28.1290 O.3     1  LIG1       -0.3120
     12  C         16.1060   -4.1140   27.1280 C.3     1  LIG1        0.2810
     13  C         16.0620   -5.1160   25.9940 C.2     1  LIG1        0.2430
     14  O         15.3970   -4.8480   24.9900 O.2     1  LIG1       -0.2710
     15  N         16.7930   -6.2950   26.1490 N.am    1  LIG1       -0.3590
     16  C         17.6030   -6.6420   27.3140 C.3     1  LIG1        0.1520
     17  C         16.7890   -7.2860   25.0800 C.3     1  LIG1        0.1520
     18  C         14.7380   -9.3900   34.0220 C.2     1  LIG1        0.2980
     19  O         15.1180   -8.7230   34.9730 O.2     1  LIG1       -0.2590
     20  C         15.0580  -10.8320   33.8620 C.ar    1  LIG1        0.0400
     21  C         16.3280  -11.2210   33.4390 C.ar    1  LIG1        0.0200
     22  C         16.6280  -12.5750   33.2880 C.ar    1  LIG1        0.0330
     23  C         15.6580  -13.5400   33.5610 C.ar    1  LIG1        0.0750
     24  C         14.3870  -13.1500   33.9840 C.ar    1  LIG1        0.0330
     25  C         14.0870  -11.7960   34.1340 C.ar    1  LIG1        0.0200
     26  N         15.9590  -14.8970   33.4100 N.pl3   1  LIG1       -0.0660
     27  C         15.8450  -15.4440   32.2230 C.cat   1  LIG1        0.6920
     28  N         15.4500  -14.8280   31.0550 N.pl3   1  LIG1       -0.2330
     29  N         16.1310  -16.7750   32.0330 N.pl3   1  LIG1       -0.2330
     30  H         15.2160  -13.8730   31.0570 H       1  LIG1        0.1740
     31  H         15.4020  -15.3460   30.2180 H       1  LIG1        0.1740
     32  H         16.4260  -17.3290   32.7910 H       1  LIG1        0.1740
     33  H         16.0430  -17.1740   31.1370 H       1  LIG1        0.1740
@<TRIPOS>BOND
     1    14    13    2
     2    17    15    1
     3    13    15   am
     4    13    12    1
     5    15    16    1
     6    12    11    1
     7    11     9    1
     8     9    10    2
     9     9     8    1
    10    31    28    1
    11     8     5    1
    12     6     5   ar
    13     6     7   ar
    14     5     4   ar
    15    28    30    1
    16    28    27    1
    17    33    29    1
    18     7     2   ar
    19     4     3   ar
    20    29    27    1
    21    29    32    1
    22    27    26    2
    23     2     3   ar
    24     2     1    1
    25     1    18    1
    26    22    21   ar
    27    22    23   ar
    28    26    23    1
    29    21    20   ar
    30    23    24   ar
    31    20    18    1
    32    20    25   ar
    33    24    25   ar
    34    18    19    2
@<TRIPOS>MOLECULE
./../dock_file/temp/a532dc9f5ed69242cba02dd1bfd8034d/Camostat_Ligand_CID_2536:hmTMPRSS6:20230414003330/Camostat_Ligand_CID_2536:hmTMPRSS6_out_4.pdbqt
 33 34 0 0 0
SMALL
GASTEIGER

@<TRIPOS>ATOM
      1  O         19.9390   -7.3130   32.0800 O.3     1  LIG1       -0.2750
      2  C         18.7360   -6.6950   31.9290 C.ar    1  LIG1        0.0790
      3  C         17.6640   -7.3820   31.3610 C.ar    1  LIG1        0.0380
      4  C         16.4320   -6.7480   31.2060 C.ar    1  LIG1        0.0100
      5  C         16.2710   -5.4250   31.6220 C.ar    1  LIG1       -0.0490
      6  C         17.3430   -4.7380   32.1910 C.ar    1  LIG1        0.0100
      7  C         18.5760   -5.3730   32.3450 C.ar    1  LIG1        0.0380
      8  C         14.9400   -4.7400   31.4550 C.3     1  LIG1        0.1490
      9  C         14.9390   -3.7170   30.3430 C.2     1  LIG1        0.2630
     10  O         14.8720   -2.5050   30.4950 O.2     1  LIG1       -0.2650
     11  O         15.0270   -4.3570   29.1300 O.3     1  LIG1       -0.3120
     12  C         16.1130   -3.9890   28.3060 C.3     1  LIG1        0.2810
     13  C         15.7660   -4.2560   26.8570 C.2     1  LIG1        0.2430
     14  O         15.0830   -3.4280   26.2480 O.2     1  LIG1       -0.2710
     15  N         16.2540   -5.4320   26.2850 N.am    1  LIG1       -0.3590
     16  C         17.0770   -6.4270   26.9680 C.3     1  LIG1        0.1520
     17  C         15.9530   -5.7280   24.8900 C.3     1  LIG1        0.1520
     18  C         20.5230   -7.7350   30.8830 C.2     1  LIG1        0.2980
     19  O         20.4810   -8.8690   30.4310 O.2     1  LIG1       -0.2590
     20  C         21.2330   -6.6170   30.2110 C.ar    1  LIG1        0.0400
     21  C         22.5180   -6.2620   30.6210 C.ar    1  LIG1        0.0200
     22  C         23.1850   -5.2120   29.9900 C.ar    1  LIG1        0.0330
     23  C         22.5680   -4.5180   28.9490 C.ar    1  LIG1        0.0750
     24  C         21.2830   -4.8740   28.5390 C.ar    1  LIG1        0.0330
     25  C         20.6150   -5.9230   29.1710 C.ar    1  LIG1        0.0200
     26  N         23.2380   -3.4650   28.3160 N.pl3   1  LIG1       -0.0660
     27  C         23.2080   -2.2740   28.8640 C.cat   1  LIG1        0.6920
     28  N         22.5740   -1.9090   30.0320 N.pl3   1  LIG1       -0.2330
     29  N         23.8530   -1.2130   28.2730 N.pl3   1  LIG1       -0.2330
     30  H         22.0740   -2.5780   30.5510 H       1  LIG1        0.1740
     31  H         22.6210   -0.9760   30.3460 H       1  LIG1        0.1740
     32  H         24.3450   -1.3430   27.4310 H       1  LIG1        0.1740
     33  H         23.8230   -0.3240   28.6950 H       1  LIG1        0.1740
@<TRIPOS>BOND
     1    17    15    1
     2    14    13    2
     3    15    13   am
     4    15    16    1
     5    13    12    1
     6    32    29    1
     7    29    33    1
     8    29    27    1
     9    12    11    1
    10    26    27    2
    11    26    23    1
    12    24    23   ar
    13    24    25   ar
    14    27    28    1
    15    23    22   ar
    16    11     9    1
    17    25    20   ar
    18    22    21   ar
    19    28    31    1
    20    28    30    1
    21    20    21   ar
    22    20    18    1
    23     9    10    2
    24     9     8    1
    25    19    18    2
    26    18     1    1
    27     4     3   ar
    28     4     5   ar
    29     3     2   ar
    30     8     5    1
    31     5     6   ar
    32     2     1    1
    33     2     7   ar
    34     6     7   ar
@<TRIPOS>MOLECULE
./../dock_file/temp/a532dc9f5ed69242cba02dd1bfd8034d/Camostat_Ligand_CID_2536:hmTMPRSS6:20230414003330/Camostat_Ligand_CID_2536:hmTMPRSS6_out_4.pdbqt
 33 34 0 0 0
SMALL
GASTEIGER

@<TRIPOS>ATOM
      1  O         23.7000   -2.5660   29.8490 O.3     1  LIG1       -0.2750
      2  C         22.5150   -3.2310   29.9110 C.ar    1  LIG1        0.0790
      3  C         21.6210   -2.9700   30.9500 C.ar    1  LIG1        0.0380
      4  C         20.4070   -3.6520   31.0130 C.ar    1  LIG1        0.0100
      5  C         20.0840   -4.5950   30.0370 C.ar    1  LIG1       -0.0490
      6  C         20.9780   -4.8560   28.9980 C.ar    1  LIG1        0.0100
      7  C         22.1930   -4.1740   28.9350 C.ar    1  LIG1        0.0380
      8  C         18.7720   -5.3320   30.1050 C.3     1  LIG1        0.1490
      9  C         17.6230   -4.5460   29.5180 C.2     1  LIG1        0.2630
     10  O         16.7510   -3.9790   30.1610 O.2     1  LIG1       -0.2650
     11  O         17.7090   -4.5620   28.1460 O.3     1  LIG1       -0.3120
     12  C         16.5470   -4.9660   27.4530 C.3     1  LIG1        0.2810
     13  C         16.8290   -6.2410   26.6860 C.2     1  LIG1        0.2430
     14  O         17.4810   -7.1330   27.2360 O.2     1  LIG1       -0.2710
     15  N         16.3210   -6.3370   25.3900 N.am    1  LIG1       -0.3590
     16  C         15.5340   -5.3110   24.7100 C.3     1  LIG1        0.1520
     17  C         16.5590   -7.5490   24.6150 C.3     1  LIG1        0.1520
     18  C         23.8010   -1.6690   28.7830 C.2     1  LIG1        0.2980
     19  O         24.0160   -1.9680   27.6180 O.2     1  LIG1       -0.2590
     20  C         23.6280   -0.2680   29.2430 C.ar    1  LIG1        0.0400
     21  C         24.4670    0.2510   30.2290 C.ar    1  LIG1        0.0200
     22  C         24.3050    1.5670   30.6610 C.ar    1  LIG1        0.0330
     23  C         23.3040    2.3650   30.1080 C.ar    1  LIG1        0.0750
     24  C         22.4640    1.8460   29.1220 C.ar    1  LIG1        0.0330
     25  C         22.6260    0.5300   28.6900 C.ar    1  LIG1        0.0200
     26  N         23.1410    3.6850   30.5410 N.pl3   1  LIG1       -0.0660
     27  C         22.4860    3.9100   31.6550 C.cat   1  LIG1        0.6920
     28  N         21.9110    2.9750   32.4890 N.pl3   1  LIG1       -0.2330
     29  N         22.3040    5.1930   32.1160 N.pl3   1  LIG1       -0.2330
     30  H         21.9710    2.0180   32.2700 H       1  LIG1        0.1740
     31  H         21.4400    3.2670   33.3040 H       1  LIG1        0.1740
     32  H         22.6680    5.9540   31.6090 H       1  LIG1        0.1740
     33  H         21.8110    5.3490   32.9530 H       1  LIG1        0.1740
@<TRIPOS>BOND
     1    17    15    1
     2    16    15    1
     3    15    13   am
     4    13    14    2
     5    13    12    1
     6    12    11    1
     7    19    18    2
     8    11     9    1
     9    25    24   ar
    10    25    20   ar
    11    18    20    1
    12    18     1    1
    13     7     6   ar
    14     7     2   ar
    15     6     5   ar
    16    24    23   ar
    17    20    21   ar
    18     9     8    1
    19     9    10    2
    20     1     2    1
    21     2     3   ar
    22     5     8    1
    23     5     4   ar
    24    23    26    1
    25    23    22   ar
    26    21    22   ar
    27    26    27    2
    28     3     4   ar
    29    32    29    1
    30    27    29    1
    31    27    28    1
    32    29    33    1
    33    30    28    1
    34    28    31    1
@<TRIPOS>MOLECULE
./../dock_file/temp/a532dc9f5ed69242cba02dd1bfd8034d/Camostat_Ligand_CID_2536:hmTMPRSS6:20230414003330/Camostat_Ligand_CID_2536:hmTMPRSS6_out_4.pdbqt
 33 34 0 0 0
SMALL
GASTEIGER

@<TRIPOS>ATOM
      1  O         22.4160   -4.6810   30.2800 O.3     1  LIG1       -0.2750
      2  C         21.1290   -5.1150   30.1840 C.ar    1  LIG1        0.0790
      3  C         20.0790   -4.2680   30.5390 C.ar    1  LIG1        0.0380
      4  C         18.7610   -4.7130   30.4410 C.ar    1  LIG1        0.0100
      5  C         18.4920   -6.0040   29.9860 C.ar    1  LIG1       -0.0490
      6  C         19.5430   -6.8510   29.6300 C.ar    1  LIG1        0.0100
      7  C         20.8610   -6.4060   29.7290 C.ar    1  LIG1        0.0380
      8  C         17.0680   -6.4850   29.8790 C.3     1  LIG1        0.1490
      9  C         16.3300   -5.8840   28.7060 C.2     1  LIG1        0.2630
     10  O         15.6320   -4.8810   28.7470 O.2     1  LIG1       -0.2650
     11  O         16.5640   -6.6390   27.5810 O.3     1  LIG1       -0.3120
     12  C         17.0200   -5.9380   26.4430 C.3     1  LIG1        0.2810
     13  C         15.8940   -5.8150   25.4370 C.2     1  LIG1        0.2430
     14  O         15.1650   -4.8200   25.4810 O.2     1  LIG1       -0.2710
     15  N         15.7520   -6.8410   24.5020 N.am    1  LIG1       -0.3590
     16  C         16.6040   -8.0250   24.4090 C.3     1  LIG1        0.1520
     17  C         14.6890   -6.7630   23.5090 C.3     1  LIG1        0.1520
     18  C         22.8700   -3.9780   29.1610 C.2     1  LIG1        0.2980
     19  O         23.0800   -4.4550   28.0570 O.2     1  LIG1       -0.2590
     20  C         23.0900   -2.5450   29.4830 C.ar    1  LIG1        0.0400
     21  C         23.3280   -2.1550   30.8000 C.ar    1  LIG1        0.0200
     22  C         23.5350   -0.8090   31.1020 C.ar    1  LIG1        0.0330
     23  C         23.5040    0.1470   30.0870 C.ar    1  LIG1        0.0750
     24  C         23.2660   -0.2430   28.7690 C.ar    1  LIG1        0.0330
     25  C         23.0580   -1.5890   28.4670 C.ar    1  LIG1        0.0200
     26  N         23.7120    1.4970   30.3900 N.pl3   1  LIG1       -0.0660
     27  C         22.6970    2.2170   30.8050 C.cat   1  LIG1        0.6920
     28  N         21.3970    1.7980   30.9900 N.pl3   1  LIG1       -0.2330
     29  N         22.8590    3.5470   31.1140 N.pl3   1  LIG1       -0.2330
     30  H         21.1490    0.8650   30.8030 H       1  LIG1        0.1740
     31  H         20.7160    2.4350   31.3080 H       1  LIG1        0.1740
     32  H         23.7440    3.9690   31.0240 H       1  LIG1        0.1740
     33  H         22.0900    4.0770   31.4250 H       1  LIG1        0.1740
@<TRIPOS>BOND
     1    17    15    1
     2    16    15    1
     3    15    13   am
     4    13    14    2
     5    13    12    1
     6    12    11    1
     7    11     9    1
     8    19    18    2
     9    25    24   ar
    10    25    20   ar
    11     9    10    2
    12     9     8    1
    13    24    23   ar
    14    18    20    1
    15    18     1    1
    16    20    21   ar
    17     6     7   ar
    18     6     5   ar
    19     7     2   ar
    20     8     5    1
    21     5     4   ar
    22    23    26    1
    23    23    22   ar
    24     2     1    1
    25     2     3   ar
    26    26    27    2
    27     4     3   ar
    28    21    22   ar
    29    30    28    1
    30    27    28    1
    31    27    29    1
    32    28    31    1
    33    32    29    1
    34    29    33    1
@<TRIPOS>MOLECULE
./../dock_file/temp/a532dc9f5ed69242cba02dd1bfd8034d/Camostat_Ligand_CID_2536:hmTMPRSS6:20230414003330/Camostat_Ligand_CID_2536:hmTMPRSS6_out_4.pdbqt
 33 34 0 0 0
SMALL
GASTEIGER

@<TRIPOS>ATOM
      1  O         15.1710   -9.7210   34.3260 O.3     1  LIG1       -0.2750
      2  C         15.6390   -8.8000   33.4410 C.ar    1  LIG1        0.0790
      3  C         16.8570   -8.1610   33.6760 C.ar    1  LIG1        0.0380
      4  C         17.3360   -7.2170   32.7690 C.ar    1  LIG1        0.0100
      5  C         16.5990   -6.9110   31.6250 C.ar    1  LIG1       -0.0490
      6  C         15.3810   -7.5500   31.3900 C.ar    1  LIG1        0.0100
      7  C         14.9020   -8.4950   32.2970 C.ar    1  LIG1        0.0380
      8  C         17.1170   -5.8910   30.6450 C.3     1  LIG1        0.1490
      9  C         16.3140   -4.6120   30.6470 C.2     1  LIG1        0.2630
     10  O         16.1580   -3.8750   31.6100 O.2     1  LIG1       -0.2650
     11  O         15.7840   -4.4000   29.3960 O.3     1  LIG1       -0.3120
     12  C         16.7100   -4.1410   28.3620 C.3     1  LIG1        0.2810
     13  C         16.0300   -4.3000   27.0180 C.2     1  LIG1        0.2430
     14  O         15.2550   -3.4180   26.6370 O.2     1  LIG1       -0.2710
     15  N         16.3290   -5.4440   26.2770 N.am    1  LIG1       -0.3590
     16  C         17.2500   -6.5020   26.6880 C.3     1  LIG1        0.1520
     17  C         15.7060   -5.6370   24.9740 C.3     1  LIG1        0.1520
     18  C         15.3010  -11.0450   33.9000 C.2     1  LIG1        0.2980
     19  O         16.3050  -11.5430   33.4150 O.2     1  LIG1       -0.2590
     20  C         14.0350  -11.7970   34.0950 C.ar    1  LIG1        0.0400
     21  C         12.8240  -11.2420   33.6820 C.ar    1  LIG1        0.0200
     22  C         11.6350  -11.9480   33.8640 C.ar    1  LIG1        0.0330
     23  C         11.6560  -13.2090   34.4610 C.ar    1  LIG1        0.0750
     24  C         12.8680  -13.7640   34.8740 C.ar    1  LIG1        0.0330
     25  C         14.0570  -13.0580   34.6920 C.ar    1  LIG1        0.0200
     26  N         10.4640  -13.9170   34.6440 N.pl3   1  LIG1       -0.0660
     27  C          9.7250  -13.6520   35.6940 C.cat   1  LIG1        0.6920
     28  N          9.9810  -12.7270   36.6830 N.pl3   1  LIG1       -0.2330
     29  N          8.5450  -14.3260   35.9110 N.pl3   1  LIG1       -0.2330
     30  H         10.7960  -12.1790   36.6450 H       1  LIG1        0.1740
     31  H          9.3470  -12.6170   37.4290 H       1  LIG1        0.1740
     32  H          8.2480  -15.0140   35.2740 H       1  LIG1        0.1740
     33  H          7.9990  -14.1170   36.7030 H       1  LIG1        0.1740
@<TRIPOS>BOND
     1    17    15    1
     2    15    16    1
     3    15    13   am
     4    14    13    2
     5    13    12    1
     6    12    11    1
     7    11     9    1
     8     8     9    1
     9     8     5    1
    10     9    10    2
    11     6     5   ar
    12     6     7   ar
    13     5     4   ar
    14     7     2   ar
    15     4     3   ar
    16    19    18    2
    17     2     3   ar
    18     2     1    1
    19    21    22   ar
    20    21    20   ar
    21    22    23   ar
    22    18    20    1
    23    18     1    1
    24    20    25   ar
    25    23    26    1
    26    23    24   ar
    27    26    27    2
    28    25    24   ar
    29    32    29    1
    30    27    29    1
    31    27    28    1
    32    29    33    1
    33    30    28    1
    34    28    31    1
@<TRIPOS>MOLECULE
./../dock_file/temp/a532dc9f5ed69242cba02dd1bfd8034d/Camostat_Ligand_CID_2536:hmTMPRSS6:20230414003330/Camostat_Ligand_CID_2536:hmTMPRSS6_out_4.pdbqt
 33 34 0 0 0
SMALL
GASTEIGER

@<TRIPOS>ATOM
      1  O         14.0260   -9.0060   32.9000 O.3     1  LIG1       -0.2750
      2  C         14.5770   -7.9140   32.3040 C.ar    1  LIG1        0.0790
      3  C         14.1370   -6.6350   32.6480 C.ar    1  LIG1        0.0380
      4  C         14.7020   -5.5160   32.0380 C.ar    1  LIG1        0.0100
      5  C         15.7080   -5.6740   31.0840 C.ar    1  LIG1       -0.0490
      6  C         16.1480   -6.9530   30.7410 C.ar    1  LIG1        0.0100
      7  C         15.5820   -8.0720   31.3510 C.ar    1  LIG1        0.0380
      8  C         16.3180   -4.4650   30.4250 C.3     1  LIG1        0.1490
      9  C         15.3460   -3.7240   29.5370 C.2     1  LIG1        0.2630
     10  O         14.7580   -2.6940   29.8350 O.2     1  LIG1       -0.2650
     11  O         15.2230   -4.3850   28.3380 O.3     1  LIG1       -0.3120
     12  C         16.1570   -4.0400   27.3360 C.3     1  LIG1        0.2810
     13  C         16.0660   -5.0300   26.1930 C.2     1  LIG1        0.2430
     14  O         15.3400   -4.7610   25.2320 O.2     1  LIG1       -0.2710
     15  N         16.8250   -6.1970   26.2920 N.am    1  LIG1       -0.3590
     16  C         17.7060   -6.5420   27.4050 C.3     1  LIG1        0.1520
     17  C         16.7770   -7.1750   25.2130 C.3     1  LIG1        0.1520
     18  C         14.4990   -9.2580   34.1900 C.2     1  LIG1        0.2980
     19  O         13.9140   -8.9890   35.2280 O.2     1  LIG1       -0.2590
     20  C         15.8410   -9.8930   34.1540 C.ar    1  LIG1        0.0400
     21  C         16.9130   -9.2960   34.8170 C.ar    1  LIG1        0.0200
     22  C         18.1730   -9.8930   34.7830 C.ar    1  LIG1        0.0330
     23  C         18.3620  -11.0860   34.0860 C.ar    1  LIG1        0.0750
     24  C         17.2900  -11.6830   33.4230 C.ar    1  LIG1        0.0330
     25  C         16.0300  -11.0860   33.4560 C.ar    1  LIG1        0.0200
     26  N         19.6260  -11.6840   34.0530 N.pl3   1  LIG1       -0.0660
     27  C         20.4510  -11.3680   33.0840 C.cat   1  LIG1        0.6920
     28  N         20.2260  -10.4850   32.0500 N.pl3   1  LIG1       -0.2330
     29  N         21.7030  -11.9330   33.0150 N.pl3   1  LIG1       -0.2330
     30  H         19.3650  -10.0130   31.9850 H       1  LIG1        0.1740
     31  H         20.9260  -10.3280   31.3760 H       1  LIG1        0.1740
     32  H         21.9880  -12.5820   33.6970 H       1  LIG1        0.1740
     33  H         22.3140  -11.6870   32.2830 H       1  LIG1        0.1740
@<TRIPOS>BOND
     1    17    15    1
     2    14    13    2
     3    13    15   am
     4    13    12    1
     5    15    16    1
     6    12    11    1
     7    11     9    1
     8     9    10    2
     9     9     8    1
    10     8     5    1
    11     6     5   ar
    12     6     7   ar
    13     5     4   ar
    14     7     2   ar
    15    31    28    1
    16    30    28    1
    17     4     3   ar
    18    28    27    1
    19    33    29    1
    20     2     3   ar
    21     2     1    1
    22     1    18    1
    23    29    27    1
    24    29    32    1
    25    27    26    2
    26    24    25   ar
    27    24    23   ar
    28    25    20   ar
    29    26    23    1
    30    23    22   ar
    31    20    18    1
    32    20    21   ar
    33    18    19    2
    34    22    21   ar
@<TRIPOS>MOLECULE
./../dock_file/temp/a532dc9f5ed69242cba02dd1bfd8034d/Camostat_Ligand_CID_2536:hmTMPRSS6:20230414003330/Camostat_Ligand_CID_2536:hmTMPRSS6_out_4.pdbqt
 33 34 0 0 0
SMALL
GASTEIGER

@<TRIPOS>ATOM
      1  O         14.1190   -8.7970   33.2070 O.3     1  LIG1       -0.2750
      2  C         14.6710   -7.7840   32.4840 C.ar    1  LIG1        0.0790
      3  C         14.1160   -6.5050   32.5370 C.ar    1  LIG1        0.0380
      4  C         14.6820   -5.4690   31.7970 C.ar    1  LIG1        0.0100
      5  C         15.8040   -5.7090   31.0030 C.ar    1  LIG1       -0.0490
      6  C         16.3580   -6.9880   30.9500 C.ar    1  LIG1        0.0100
      7  C         15.7920   -8.0260   31.6910 C.ar    1  LIG1        0.0380
      8  C         16.4150   -4.5890   30.2020 C.3     1  LIG1        0.1490
      9  C         15.4040   -3.8470   29.3590 C.2     1  LIG1        0.2630
     10  O         14.8230   -2.8230   29.6880 O.2     1  LIG1       -0.2650
     11  O         15.2380   -4.5010   28.1610 O.3     1  LIG1       -0.3120
     12  C         16.0890   -4.1000   27.1080 C.3     1  LIG1        0.2810
     13  C         16.0260   -5.1180   25.9880 C.2     1  LIG1        0.2430
     14  O         15.3330   -4.8690   24.9980 O.2     1  LIG1       -0.2710
     15  N         16.7730   -6.2870   26.1400 N.am    1  LIG1       -0.3590
     16  C         17.6160   -6.6100   27.2890 C.3     1  LIG1        0.1520
     17  C         16.7520   -7.2920   25.0850 C.3     1  LIG1        0.1520
     18  C         14.8190   -9.1190   34.3720 C.2     1  LIG1        0.2980
     19  O         15.7030   -9.9570   34.4640 O.2     1  LIG1       -0.2590
     20  C         14.3410   -8.3140   35.5250 C.ar    1  LIG1        0.0400
     21  C         13.2200   -8.7240   36.2450 C.ar    1  LIG1        0.0200
     22  C         12.7710   -7.9680   37.3280 C.ar    1  LIG1        0.0330
     23  C         13.4420   -6.8000   37.6890 C.ar    1  LIG1        0.0750
     24  C         14.5640   -6.3890   36.9690 C.ar    1  LIG1        0.0330
     25  C         15.0130   -7.1450   35.8860 C.ar    1  LIG1        0.0200
     26  N         12.9920   -6.0420   38.7750 N.pl3   1  LIG1       -0.0660
     27  C         12.1420   -5.0670   38.5580 C.cat   1  LIG1        0.6920
     28  N         11.6120   -4.6760   37.3470 N.pl3   1  LIG1       -0.2330
     29  N         11.6750   -4.2980   39.5980 N.pl3   1  LIG1       -0.2330
     30  H         11.8680   -5.1470   36.5230 H       1  LIG1        0.1740
     31  H         10.9780   -3.9230   37.3090 H       1  LIG1        0.1740
     32  H         11.9770   -4.4770   40.5170 H       1  LIG1        0.1740
     33  H         11.0360   -3.5690   39.4220 H       1  LIG1        0.1740
@<TRIPOS>BOND
     1    14    13    2
     2    17    15    1
     3    13    15   am
     4    13    12    1
     5    15    16    1
     6    12    11    1
     7    11     9    1
     8     9    10    2
     9     9     8    1
    10     8     5    1
    11     6     5   ar
    12     6     7   ar
    13     5     4   ar
    14     7     2   ar
    15     4     3   ar
    16     2     3   ar
    17     2     1    1
    18     1    18    1
    19    18    19    2
    20    18    20    1
    21    20    25   ar
    22    20    21   ar
    23    25    24   ar
    24    21    22   ar
    25    30    28    1
    26    24    23   ar
    27    31    28    1
    28    22    23   ar
    29    28    27    1
    30    23    26    1
    31    27    26    2
    32    27    29    1
    33    33    29    1
    34    29    32    1
@<TRIPOS>MOLECULE
./../dock_file/temp/a532dc9f5ed69242cba02dd1bfd8034d/Camostat_Ligand_CID_2536:hmTMPRSS6:20230414003330/Camostat_Ligand_CID_2536:hmTMPRSS6_out_4.pdbqt
 33 34 0 0 0
SMALL
GASTEIGER

@<TRIPOS>ATOM
      1  O         14.2230   -4.6380   30.9620 O.3     1  LIG1       -0.2750
      2  C         14.3850   -4.2190   32.2470 C.ar    1  LIG1        0.0790
      3  C         15.6610   -3.9390   32.7350 C.ar    1  LIG1        0.0380
      4  C         15.8260   -3.5090   34.0510 C.ar    1  LIG1        0.0100
      5  C         14.7140   -3.3580   34.8800 C.ar    1  LIG1       -0.0490
      6  C         13.4370   -3.6380   34.3920 C.ar    1  LIG1        0.0100
      7  C         13.2730   -4.0680   33.0750 C.ar    1  LIG1        0.0380
      8  C         14.8920   -2.8940   36.3020 C.3     1  LIG1        0.1490
      9  C         14.1200   -3.7300   37.2960 C.2     1  LIG1        0.2630
     10  O         14.2160   -4.9420   37.4280 O.2     1  LIG1       -0.2650
     11  O         13.2910   -2.9190   38.0340 O.3     1  LIG1       -0.3120
     12  C         13.8280   -2.4030   39.2340 C.3     1  LIG1        0.2810
     13  C         13.0590   -2.9560   40.4150 C.2     1  LIG1        0.2430
     14  O         13.0860   -4.1720   40.6250 O.2     1  LIG1       -0.2710
     15  N         12.3630   -2.0450   41.2110 N.am    1  LIG1       -0.3590
     16  C         12.3180   -0.6000   41.0040 C.3     1  LIG1        0.1520
     17  C         11.6140   -2.5290   42.3640 C.3     1  LIG1        0.1520
     18  C         14.7950   -3.7950   30.0060 C.2     1  LIG1        0.2980
     19  O         14.7400   -2.5750   30.0090 O.2     1  LIG1       -0.2590
     20  C         15.4830   -4.5760   28.9470 C.ar    1  LIG1        0.0400
     21  C         15.4390   -4.1430   27.6220 C.ar    1  LIG1        0.0200
     22  C         16.0860   -4.8760   26.6270 C.ar    1  LIG1        0.0330
     23  C         16.7760   -6.0420   26.9570 C.ar    1  LIG1        0.0750
     24  C         16.8200   -6.4760   28.2820 C.ar    1  LIG1        0.0330
     25  C         16.1730   -5.7430   29.2770 C.ar    1  LIG1        0.0200
     26  N         17.4250   -6.7770   25.9590 N.pl3   1  LIG1       -0.0660
     27  C         16.7410   -7.1580   24.9060 C.cat   1  LIG1        0.6920
     28  N         15.4100   -6.9170   24.6440 N.pl3   1  LIG1       -0.2330
     29  N         17.3410   -7.8820   23.9030 N.pl3   1  LIG1       -0.2330
     30  H         14.8660   -6.4080   25.2870 H       1  LIG1        0.1740
     31  H         15.0030   -7.2570   23.8140 H       1  LIG1        0.1740
     32  H         18.2940   -8.1190   23.9700 H       1  LIG1        0.1740
     33  H         16.8180   -8.1610   23.1170 H       1  LIG1        0.1740
@<TRIPOS>BOND
     1    33    29    1
     2    31    28    1
     3    29    32    1
     4    29    27    1
     5    28    27    1
     6    28    30    1
     7    27    26    2
     8    26    23    1
     9    22    23   ar
    10    22    21   ar
    11    23    24   ar
    12    21    20   ar
    13    24    25   ar
    14    20    25   ar
    15    20    18    1
    16    18    19    2
    17    18     1    1
    18     1     2    1
    19     2     3   ar
    20     2     7   ar
    21     3     4   ar
    22     7     6   ar
    23     4     5   ar
    24     6     5   ar
    25     5     8    1
    26     8     9    1
    27     9    10    2
    28     9    11    1
    29    11    12    1
    30    12    13    1
    31    13    14    2
    32    13    15   am
    33    16    15    1
    34    15    17    1
@<TRIPOS>MOLECULE
./../dock_file/temp/a532dc9f5ed69242cba02dd1bfd8034d/Camostat_Ligand_CID_2536:hmTMPRSS6:20230414003330/Camostat_Ligand_CID_2536:hmTMPRSS6_out_4.pdbqt
 33 34 0 0 0
SMALL
GASTEIGER

@<TRIPOS>ATOM
      1  O         16.8360   -4.2880   30.6750 O.3     1  LIG1       -0.2750
      2  C         16.2360   -5.3960   31.1890 C.ar    1  LIG1        0.0790
      3  C         14.8960   -5.3480   31.5760 C.ar    1  LIG1        0.0380
      4  C         14.2810   -6.4830   32.1030 C.ar    1  LIG1        0.0100
      5  C         15.0050   -7.6680   32.2420 C.ar    1  LIG1       -0.0490
      6  C         16.3450   -7.7150   31.8560 C.ar    1  LIG1        0.0100
      7  C         16.9600   -6.5800   31.3290 C.ar    1  LIG1        0.0380
      8  C         14.3410   -8.8940   32.8120 C.3     1  LIG1        0.1490
      9  C         15.0650   -9.4520   34.0140 C.2     1  LIG1        0.2630
     10  O         15.7180   -8.7970   34.8150 O.2     1  LIG1       -0.2650
     11  O         14.8780  -10.8130   34.0730 O.3     1  LIG1       -0.3120
     12  C         13.5580  -11.2700   33.8700 C.3     1  LIG1        0.2810
     13  C         13.3950  -12.6440   34.4860 C.2     1  LIG1        0.2430
     14  O         14.3990  -13.2350   34.8930 O.2     1  LIG1       -0.2710
     15  N         12.1020  -13.1630   34.5670 N.am    1  LIG1       -0.3590
     16  C         10.8880  -12.4880   34.1120 C.3     1  LIG1        0.1520
     17  C         11.8930  -14.4780   35.1600 C.3     1  LIG1        0.1520
     18  C         17.8430   -4.5600   29.7450 C.2     1  LIG1        0.2980
     19  O         19.0430   -4.4470   29.9420 O.2     1  LIG1       -0.2590
     20  C         17.2690   -4.9980   28.4480 C.ar    1  LIG1        0.0400
     21  C         17.7340   -6.1620   27.8370 C.ar    1  LIG1        0.0200
     22  C         17.1950   -6.5740   26.6180 C.ar    1  LIG1        0.0330
     23  C         16.1910   -5.8210   26.0100 C.ar    1  LIG1        0.0750
     24  C         15.7250   -4.6560   26.6200 C.ar    1  LIG1        0.0330
     25  C         16.2650   -4.2440   27.8390 C.ar    1  LIG1        0.0200
     26  N         15.6500   -6.2340   24.7870 N.pl3   1  LIG1       -0.0660
     27  C         16.2590   -7.1800   24.1120 C.cat   1  LIG1        0.6920
     28  N         17.4110   -7.8480   24.4650 N.pl3   1  LIG1       -0.2330
     29  N         15.7600   -7.6140   22.9070 N.pl3   1  LIG1       -0.2330
     30  H         17.8690   -7.6280   25.3080 H       1  LIG1        0.1740
     31  H         17.7770   -8.5440   23.8720 H       1  LIG1        0.1740
     32  H         14.9370   -7.2160   22.5420 H       1  LIG1        0.1740
     33  H         16.2260   -8.3250   22.4100 H       1  LIG1        0.1740
@<TRIPOS>BOND
     1    33    29    1
     2    32    29    1
     3    29    27    1
     4    31    28    1
     5    27    28    1
     6    27    26    2
     7    28    30    1
     8    26    23    1
     9    23    22   ar
    10    23    24   ar
    11    22    21   ar
    12    24    25   ar
    13    21    20   ar
    14    25    20   ar
    15    20    18    1
    16    18    19    2
    17    18     1    1
    18     1     2    1
    19     2     7   ar
    20     2     3   ar
    21     7     6   ar
    22     3     4   ar
    23     6     5   ar
    24     4     5   ar
    25     5     8    1
    26     8     9    1
    27    12    11    1
    28    12    13    1
    29     9    11    1
    30     9    10    2
    31    16    15    1
    32    13    15   am
    33    13    14    2
    34    15    17    1
