@<TRIPOS>MOLECULE
./../dock_file/temp/a532dc9f5ed69242cba02dd1bfd8034d/Camostat_Ligand_CID_2536:hmTMPRSS6:20230414003330/Camostat_Ligand_CID_2536:hmTMPRSS6_out_5.pdbqt
 33 34 0 0 0
SMALL
GASTEIGER

@<TRIPOS>ATOM
      1  O          4.4400  -11.5710    3.3980 O.3     1  LIG1       -0.2750
      2  C          3.6650  -11.3910    4.5030 C.ar    1  LIG1        0.0790
      3  C          3.4060  -12.4640    5.3560 C.ar    1  LIG1        0.0380
      4  C          2.6120  -12.2790    6.4870 C.ar    1  LIG1        0.0100
      5  C          2.0770  -11.0220    6.7670 C.ar    1  LIG1       -0.0490
      6  C          2.3360   -9.9490    5.9140 C.ar    1  LIG1        0.0100
      7  C          3.1300  -10.1330    4.7820 C.ar    1  LIG1        0.0380
      8  C          1.2200  -10.8220    7.9890 C.3     1  LIG1        0.1490
      9  C         -0.2590  -10.9200    7.6940 C.2     1  LIG1        0.2630
     10  O         -0.8750  -11.9580    7.4970 O.2     1  LIG1       -0.2650
     11  O         -0.8090   -9.6600    7.6810 O.3     1  LIG1       -0.3120
     12  C         -1.4260   -9.2610    6.4760 C.3     1  LIG1        0.2810
     13  C         -1.2210   -7.7750    6.2670 C.2     1  LIG1        0.2430
     14  O         -0.1830   -7.2540    6.6850 O.2     1  LIG1       -0.2710
     15  N         -2.2260   -7.0760    5.5970 N.am    1  LIG1       -0.3590
     16  C         -3.4600   -7.6590    5.0750 C.3     1  LIG1        0.1520
     17  C         -2.0700   -5.6460    5.3640 C.3     1  LIG1        0.1520
     18  C          5.7470  -11.9800    3.6730 C.2     1  LIG1        0.2980
     19  O          6.1140  -13.1350    3.8280 O.2     1  LIG1       -0.2590
     20  C          6.6620  -10.8150    3.7750 C.ar    1  LIG1        0.0400
     21  C          6.3560   -9.6270    3.1130 C.ar    1  LIG1        0.0200
     22  C          7.2150   -8.5330    3.2090 C.ar    1  LIG1        0.0330
     23  C          8.3820   -8.6270    3.9670 C.ar    1  LIG1        0.0750
     24  C          8.6890   -9.8160    4.6300 C.ar    1  LIG1        0.0330
     25  C          7.8290  -10.9100    4.5340 C.ar    1  LIG1        0.0200
     26  N          9.2440   -7.5300    4.0640 N.pl3   1  LIG1       -0.0660
     27  C          9.0000   -6.6090    4.9660 C.cat   1  LIG1        0.6920
     28  N          7.9600   -6.5810    5.8690 N.pl3   1  LIG1       -0.2330
     29  N          9.8240   -5.5150    5.0930 N.pl3   1  LIG1       -0.2330
     30  H          7.2980   -7.3090    5.8810 H       1  LIG1        0.1740
     31  H          7.8790   -5.8310    6.5030 H       1  LIG1        0.1740
     32  H         10.6060   -5.4170    4.5040 H       1  LIG1        0.1740
     33  H          9.6300   -4.8310    5.7740 H       1  LIG1        0.1740
@<TRIPOS>BOND
     1    21    22   ar
     2    21    20   ar
     3    22    23   ar
     4     1    18    1
     5     1     2    1
     6    18    20    1
     7    18    19    2
     8    20    25   ar
     9    23    26    1
    10    23    24   ar
    11    26    27    2
    12     2     7   ar
    13     2     3   ar
    14    32    29    1
    15    25    24   ar
    16     7     6   ar
    17    27    29    1
    18    27    28    1
    19    16    15    1
    20    29    33    1
    21     3     4   ar
    22    17    15    1
    23    15    13   am
    24    28    30    1
    25    28    31    1
    26     6     5   ar
    27    13    12    1
    28    13    14    2
    29    12    11    1
    30     4     5   ar
    31     5     8    1
    32    10     9    2
    33    11     9    1
    34     9     8    1
@<TRIPOS>MOLECULE
./../dock_file/temp/a532dc9f5ed69242cba02dd1bfd8034d/Camostat_Ligand_CID_2536:hmTMPRSS6:20230414003330/Camostat_Ligand_CID_2536:hmTMPRSS6_out_5.pdbqt
 33 34 0 0 0
SMALL
GASTEIGER

@<TRIPOS>ATOM
      1  O          0.2310   -8.5020    7.3000 O.3     1  LIG1       -0.2750
      2  C         -0.4760   -8.3360    6.1490 C.ar    1  LIG1        0.0790
      3  C         -0.2300   -7.2330    5.3310 C.ar    1  LIG1        0.0380
      4  C         -0.9550   -7.0630    4.1530 C.ar    1  LIG1        0.0100
      5  C         -1.9260   -7.9970    3.7900 C.ar    1  LIG1       -0.0490
      6  C         -2.1720   -9.1000    4.6080 C.ar    1  LIG1        0.0100
      7  C         -1.4470   -9.2700    5.7880 C.ar    1  LIG1        0.0380
      8  C         -2.7090   -7.8140    2.5160 C.3     1  LIG1        0.1490
      9  C         -4.0700   -7.1990    2.7450 C.2     1  LIG1        0.2630
     10  O         -5.1100   -7.8210    2.9130 O.2     1  LIG1       -0.2650
     11  O         -3.9620   -5.8290    2.7360 O.3     1  LIG1       -0.3120
     12  C         -4.6140   -5.1440    3.7850 C.3     1  LIG1        0.2810
     13  C         -3.5900   -4.6600    4.7910 C.2     1  LIG1        0.2430
     14  O         -2.9020   -3.6750    4.5090 O.2     1  LIG1       -0.2710
     15  N         -3.4920   -5.3580    5.9950 N.am    1  LIG1       -0.3590
     16  C         -4.2980   -6.5170    6.3700 C.3     1  LIG1        0.1520
     17  C         -2.5270   -4.9240    6.9970 C.3     1  LIG1        0.1520
     18  C          1.6180   -8.4990    7.1280 C.2     1  LIG1        0.2980
     19  O          2.3730   -7.5940    7.4500 O.2     1  LIG1       -0.2590
     20  C          2.0790   -9.7500    6.4750 C.ar    1  LIG1        0.0400
     21  C          2.7330   -9.6940    5.2450 C.ar    1  LIG1        0.0200
     22  C          3.1680  -10.8700    4.6320 C.ar    1  LIG1        0.0330
     23  C          2.9470  -12.1010    5.2490 C.ar    1  LIG1        0.0750
     24  C          2.2930  -12.1570    6.4800 C.ar    1  LIG1        0.0330
     25  C          1.8580  -10.9820    7.0930 C.ar    1  LIG1        0.0200
     26  N          3.3820  -13.2800    4.6340 N.pl3   1  LIG1       -0.0660
     27  C          4.5720  -13.7460    4.9290 C.cat   1  LIG1        0.6920
     28  N          5.4880  -13.2030    5.8040 N.pl3   1  LIG1       -0.2330
     29  N          5.0370  -14.9020    4.3470 N.pl3   1  LIG1       -0.2330
     30  H          5.2760  -12.3720    6.2860 H       1  LIG1        0.1740
     31  H          6.3570  -13.6470    5.9440 H       1  LIG1        0.1740
     32  H          4.4760  -15.3890    3.7020 H       1  LIG1        0.1740
     33  H          5.9320  -15.2430    4.5770 H       1  LIG1        0.1740
@<TRIPOS>BOND
     1     8     9    1
     2     8     5    1
     3    11     9    1
     4    11    12    1
     5     9    10    2
     6    32    29    1
     7    12    13    1
     8     5     4   ar
     9     5     6   ar
    10     4     3   ar
    11    29    33    1
    12    29    27    1
    13    14    13    2
    14     6     7   ar
    15    22    21   ar
    16    22    23   ar
    17    26    27    2
    18    26    23    1
    19    13    15   am
    20    27    28    1
    21    21    20   ar
    22    23    24   ar
    23     3     2   ar
    24     7     2   ar
    25    28    31    1
    26    28    30    1
    27    15    16    1
    28    15    17    1
    29     2     1    1
    30    20    25   ar
    31    20    18    1
    32    24    25   ar
    33    18     1    1
    34    18    19    2
@<TRIPOS>MOLECULE
./../dock_file/temp/a532dc9f5ed69242cba02dd1bfd8034d/Camostat_Ligand_CID_2536:hmTMPRSS6:20230414003330/Camostat_Ligand_CID_2536:hmTMPRSS6_out_5.pdbqt
 33 34 0 0 0
SMALL
GASTEIGER

@<TRIPOS>ATOM
      1  O         -0.1250   -7.1870    6.6190 O.3     1  LIG1       -0.2750
      2  C         -1.1750   -6.4560    6.1540 C.ar    1  LIG1        0.0790
      3  C         -1.6900   -6.7050    4.8810 C.ar    1  LIG1        0.0380
      4  C         -2.7650   -5.9560    4.4060 C.ar    1  LIG1        0.0100
      5  C         -3.3270   -4.9580    5.2020 C.ar    1  LIG1       -0.0490
      6  C         -2.8130   -4.7100    6.4750 C.ar    1  LIG1        0.0100
      7  C         -1.7370   -5.4590    6.9510 C.ar    1  LIG1        0.0380
      8  C         -4.4900   -4.1490    4.6880 C.3     1  LIG1        0.1490
      9  C         -4.2660   -2.6590    4.8030 C.2     1  LIG1        0.2630
     10  O         -3.3230   -2.0450    4.3240 O.2     1  LIG1       -0.2650
     11  O         -5.2890   -2.0960    5.5300 O.3     1  LIG1       -0.3120
     12  C         -5.8850   -2.9200    6.5090 C.3     1  LIG1        0.2810
     13  C         -5.6770   -2.3120    7.8810 C.2     1  LIG1        0.2430
     14  O         -5.5650   -1.0860    7.9760 O.2     1  LIG1       -0.2710
     15  N         -5.6320   -3.1830    8.9700 N.am    1  LIG1       -0.3590
     16  C         -5.7760   -4.6350    8.8990 C.3     1  LIG1        0.1520
     17  C         -5.4420   -2.6440   10.3110 C.3     1  LIG1        0.1520
     18  C         -0.3640   -8.5630    6.6780 C.2     1  LIG1        0.2980
     19  O         -1.3070   -9.0990    7.2400 O.2     1  LIG1       -0.2590
     20  C          0.7000   -9.3210    5.9730 C.ar    1  LIG1        0.0400
     21  C          0.4190  -10.5740    5.4280 C.ar    1  LIG1        0.0200
     22  C          1.4180  -11.2860    4.7650 C.ar    1  LIG1        0.0330
     23  C          2.6990  -10.7470    4.6470 C.ar    1  LIG1        0.0750
     24  C          2.9810   -9.4940    5.1920 C.ar    1  LIG1        0.0330
     25  C          1.9810   -8.7810    5.8550 C.ar    1  LIG1        0.0200
     26  N          3.7010  -11.4620    3.9820 N.pl3   1  LIG1       -0.0660
     27  C          4.3570  -12.3900    4.6360 C.cat   1  LIG1        0.6920
     28  N          4.1810  -12.7690    5.9490 N.pl3   1  LIG1       -0.2330
     29  N          5.3490  -13.1150    4.0190 N.pl3   1  LIG1       -0.2330
     30  H          3.4990  -12.3250    6.5020 H       1  LIG1        0.1740
     31  H          4.7380  -13.4840    6.3330 H       1  LIG1        0.1740
     32  H          5.5730  -12.9410    3.0770 H       1  LIG1        0.1740
     33  H          5.8350  -13.8100    4.5200 H       1  LIG1        0.1740
@<TRIPOS>BOND
     1    32    29    1
     2    26    27    2
     3    26    23    1
     4    29    33    1
     5    29    27    1
     6    10     9    2
     7     4     3   ar
     8     4     5   ar
     9    27    28    1
    10    23    22   ar
    11    23    24   ar
    12     8     9    1
    13     8     5    1
    14    22    21   ar
    15     9    11    1
    16     3     2   ar
    17    24    25   ar
    18     5     6   ar
    19    21    20   ar
    20    11    12    1
    21    25    20   ar
    22    28    31    1
    23    28    30    1
    24    20    18    1
    25     2     1    1
    26     2     7   ar
    27     6     7   ar
    28    12    13    1
    29     1    18    1
    30    18    19    2
    31    13    14    2
    32    13    15   am
    33    16    15    1
    34    15    17    1
@<TRIPOS>MOLECULE
./../dock_file/temp/a532dc9f5ed69242cba02dd1bfd8034d/Camostat_Ligand_CID_2536:hmTMPRSS6:20230414003330/Camostat_Ligand_CID_2536:hmTMPRSS6_out_5.pdbqt
 33 34 0 0 0
SMALL
GASTEIGER

@<TRIPOS>ATOM
      1  O          4.7420  -12.6760    3.6330 O.3     1  LIG1       -0.2750
      2  C          3.9210  -12.2590    4.6350 C.ar    1  LIG1        0.0790
      3  C          2.9940  -11.2420    4.4030 C.ar    1  LIG1        0.0380
      4  C          2.1540  -10.8170    5.4300 C.ar    1  LIG1        0.0100
      5  C          2.2370  -11.4080    6.6910 C.ar    1  LIG1       -0.0490
      6  C          3.1630  -12.4250    6.9230 C.ar    1  LIG1        0.0100
      7  C          4.0050  -12.8510    5.8960 C.ar    1  LIG1        0.0380
      8  C          1.3280  -10.9480    7.8010 C.3     1  LIG1        0.1490
      9  C          1.0360   -9.4670    7.7470 C.2     1  LIG1        0.2630
     10  O          1.8650   -8.5760    7.8680 O.2     1  LIG1       -0.2650
     11  O         -0.3090   -9.2720    7.5390 O.3     1  LIG1       -0.3120
     12  C         -1.1330  -10.4110    7.6710 C.3     1  LIG1        0.2810
     13  C         -2.5860  -10.0080    7.5280 C.2     1  LIG1        0.2430
     14  O         -2.8530   -8.9290    6.9930 O.2     1  LIG1       -0.2710
     15  N         -3.5490  -10.8970    8.0070 N.am    1  LIG1       -0.3590
     16  C         -3.2730  -12.1890    8.6310 C.3     1  LIG1        0.1520
     17  C         -4.9610  -10.5570    7.8840 C.3     1  LIG1        0.1520
     18  C          6.0730  -12.8530    4.0170 C.2     1  LIG1        0.2980
     19  O          6.5830  -13.9120    4.3500 O.2     1  LIG1       -0.2590
     20  C          6.8150  -11.5670    3.9890 C.ar    1  LIG1        0.0400
     21  C          7.9970  -11.4280    4.7150 C.ar    1  LIG1        0.0200
     22  C          8.6940  -10.2200    4.6880 C.ar    1  LIG1        0.0330
     23  C          8.2080   -9.1510    3.9350 C.ar    1  LIG1        0.0750
     24  C          7.0260   -9.2900    3.2080 C.ar    1  LIG1        0.0330
     25  C          6.3290  -10.4980    3.2350 C.ar    1  LIG1        0.0200
     26  N          8.9070   -7.9390    3.9080 N.pl3   1  LIG1       -0.0660
     27  C          8.6010   -7.0110    4.7830 C.cat   1  LIG1        0.6920
     28  N          7.6400   -7.0770    5.7680 N.pl3   1  LIG1       -0.2330
     29  N          9.2650   -5.8070    4.7900 N.pl3   1  LIG1       -0.2330
     30  H          7.0930   -7.8890    5.8680 H       1  LIG1        0.1740
     31  H          7.4990   -6.3110    6.3700 H       1  LIG1        0.1740
     32  H          9.9780   -5.6340    4.1350 H       1  LIG1        0.1740
     33  H          9.0260   -5.1180    5.4530 H       1  LIG1        0.1740
@<TRIPOS>BOND
     1    24    25   ar
     2    24    23   ar
     3    25    20   ar
     4     1    18    1
     5     1     2    1
     6    26    23    1
     7    26    27    2
     8    23    22   ar
     9    20    18    1
    10    20    21   ar
    11    18    19    2
    12    32    29    1
    13     3     2   ar
    14     3     4   ar
    15     2     7   ar
    16    22    21   ar
    17    27    29    1
    18    27    28    1
    19    29    33    1
    20     4     5   ar
    21    28    30    1
    22    28    31    1
    23     7     6   ar
    24     5     6   ar
    25     5     8    1
    26    14    13    2
    27    13    12    1
    28    13    15   am
    29    11    12    1
    30    11     9    1
    31     9     8    1
    32     9    10    2
    33    17    15    1
    34    15    16    1
@<TRIPOS>MOLECULE
./../dock_file/temp/a532dc9f5ed69242cba02dd1bfd8034d/Camostat_Ligand_CID_2536:hmTMPRSS6:20230414003330/Camostat_Ligand_CID_2536:hmTMPRSS6_out_5.pdbqt
 33 34 0 0 0
SMALL
GASTEIGER

@<TRIPOS>ATOM
      1  O         -1.5030   -4.9520    4.4570 O.3     1  LIG1       -0.2750
      2  C         -2.4600   -4.6360    5.3710 C.ar    1  LIG1        0.0790
      3  C         -3.6160   -3.9660    4.9680 C.ar    1  LIG1        0.0380
      4  C         -4.5970   -3.6430    5.9050 C.ar    1  LIG1        0.0100
      5  C         -4.4230   -3.9900    7.2450 C.ar    1  LIG1       -0.0490
      6  C         -3.2680   -4.6600    7.6480 C.ar    1  LIG1        0.0100
      7  C         -2.2860   -4.9830    6.7100 C.ar    1  LIG1        0.0380
      8  C         -5.4830   -3.6410    8.2570 C.3     1  LIG1        0.1490
      9  C         -5.1540   -4.1310    9.6480 C.2     1  LIG1        0.2630
     10  O         -4.5840   -3.4800   10.5130 O.2     1  LIG1       -0.2650
     11  O         -5.5940   -5.4250    9.7950 O.3     1  LIG1       -0.3120
     12  C         -6.9440   -5.6670    9.4590 C.3     1  LIG1        0.2810
     13  C         -7.1960   -7.1590    9.4050 C.2     1  LIG1        0.2430
     14  O         -7.5030   -7.7470   10.4460 O.2     1  LIG1       -0.2710
     15  N         -7.0730   -7.7870    8.1650 N.am    1  LIG1       -0.3590
     16  C         -6.7270   -7.1240    6.9100 C.3     1  LIG1        0.1520
     17  C         -7.3140   -9.2210    8.0620 C.3     1  LIG1        0.1520
     18  C         -1.8500   -5.9980    3.5980 C.2     1  LIG1        0.2980
     19  O         -2.2640   -5.8740    2.4560 O.2     1  LIG1       -0.2590
     20  C         -1.6690   -7.3150    4.2590 C.ar    1  LIG1        0.0400
     21  C         -2.7220   -8.2300    4.2920 C.ar    1  LIG1        0.0200
     22  C         -2.5510   -9.4670    4.9120 C.ar    1  LIG1        0.0330
     23  C         -1.3290   -9.7910    5.5000 C.ar    1  LIG1        0.0750
     24  C         -0.2760   -8.8770    5.4680 C.ar    1  LIG1        0.0330
     25  C         -0.4460   -7.6390    4.8480 C.ar    1  LIG1        0.0200
     26  N         -1.1580  -11.0320    6.1220 N.pl3   1  LIG1       -0.0660
     27  C         -1.5260  -11.1700    7.3730 C.cat   1  LIG1        0.6920
     28  N         -2.0810  -10.2100    8.1910 N.pl3   1  LIG1       -0.2330
     29  N         -1.3750  -12.3740    8.0210 N.pl3   1  LIG1       -0.2330
     30  H         -2.2410   -9.3020    7.8460 H       1  LIG1        0.1740
     31  H         -2.3170  -10.4320    9.1210 H       1  LIG1        0.1740
     32  H         -0.9890  -13.1430    7.5460 H       1  LIG1        0.1740
     33  H         -1.6550  -12.4640    8.9610 H       1  LIG1        0.1740
@<TRIPOS>BOND
     1    19    18    2
     2    18    20    1
     3    18     1    1
     4    20    21   ar
     5    20    25   ar
     6    21    22   ar
     7     1     2    1
     8    25    24   ar
     9    22    23   ar
    10     3     2   ar
    11     3     4   ar
    12     2     7   ar
    13    24    23   ar
    14    23    26    1
    15     4     5   ar
    16    26    27    2
    17     7     6   ar
    18    16    15    1
    19     5     6   ar
    20     5     8    1
    21    27    29    1
    22    27    28    1
    23    32    29    1
    24    30    28    1
    25    29    33    1
    26    17    15    1
    27    15    13   am
    28    28    31    1
    29     8     9    1
    30    13    12    1
    31    13    14    2
    32    12    11    1
    33     9    11    1
    34     9    10    2
@<TRIPOS>MOLECULE
./../dock_file/temp/a532dc9f5ed69242cba02dd1bfd8034d/Camostat_Ligand_CID_2536:hmTMPRSS6:20230414003330/Camostat_Ligand_CID_2536:hmTMPRSS6_out_5.pdbqt
 33 34 0 0 0
SMALL
GASTEIGER

@<TRIPOS>ATOM
      1  O         -5.8060   -2.3690   11.2110 O.3     1  LIG1       -0.2750
      2  C         -5.5620   -2.6680    9.9060 C.ar    1  LIG1        0.0790
      3  C         -5.7880   -1.7120    8.9160 C.ar    1  LIG1        0.0380
      4  C         -5.5380   -2.0190    7.5800 C.ar    1  LIG1        0.0100
      5  C         -5.0590   -3.2820    7.2320 C.ar    1  LIG1       -0.0490
      6  C         -4.8320   -4.2380    8.2220 C.ar    1  LIG1        0.0100
      7  C         -5.0830   -3.9310    9.5590 C.ar    1  LIG1        0.0380
      8  C         -4.7870   -3.6140    5.7870 C.3     1  LIG1        0.1490
      9  C         -3.4220   -3.1620    5.3250 C.2     1  LIG1        0.2630
     10  O         -3.1690   -2.0790    4.8150 O.2     1  LIG1       -0.2650
     11  O         -2.5030   -4.1550    5.5670 O.3     1  LIG1       -0.3120
     12  C         -2.7430   -5.3950    4.9360 C.3     1  LIG1        0.2810
     13  C         -2.1900   -5.3640    3.5270 C.2     1  LIG1        0.2430
     14  O         -0.9700   -5.2750    3.3700 O.2     1  LIG1       -0.2710
     15  N         -3.1050   -5.4500    2.4760 N.am    1  LIG1       -0.3590
     16  C         -4.5530   -5.5720    2.6220 C.3     1  LIG1        0.1520
     17  C         -2.6200   -5.4330    1.1020 C.3     1  LIG1        0.1520
     18  C         -7.0660   -1.8130   11.4470 C.2     1  LIG1        0.2980
     19  O         -8.1130   -2.1780   10.9360 O.2     1  LIG1       -0.2590
     20  C         -6.9810   -0.6820   12.4060 C.ar    1  LIG1        0.0400
     21  C         -6.7330    0.6090   11.9420 C.ar    1  LIG1        0.0200
     22  C         -6.6550    1.6710   12.8430 C.ar    1  LIG1        0.0330
     23  C         -6.8230    1.4420   14.2080 C.ar    1  LIG1        0.0750
     24  C         -7.0700    0.1500   14.6730 C.ar    1  LIG1        0.0330
     25  C         -7.1490   -0.9120   13.7720 C.ar    1  LIG1        0.0200
     26  N         -6.7430    2.5070   15.1120 N.pl3   1  LIG1       -0.0660
     27  C         -7.8440    3.1340   15.4510 C.cat   1  LIG1        0.6920
     28  N         -9.1240    2.8680   15.0140 N.pl3   1  LIG1       -0.2330
     29  N         -7.8090    4.1850   16.3360 N.pl3   1  LIG1       -0.2330
     30  H         -9.2840    2.1380   14.3750 H       1  LIG1        0.1740
     31  H         -9.8780    3.4120   15.3410 H       1  LIG1        0.1740
     32  H         -6.9520    4.4750   16.7230 H       1  LIG1        0.1740
     33  H         -8.6430    4.6480   16.5830 H       1  LIG1        0.1740
@<TRIPOS>BOND
     1    17    15    1
     2    15    16    1
     3    15    13   am
     4    14    13    2
     5    13    12    1
     6    10     9    2
     7    12    11    1
     8     9    11    1
     9     9     8    1
    10     8     5    1
    11     5     4   ar
    12     5     6   ar
    13     4     3   ar
    14     6     7   ar
    15     3     2   ar
    16     7     2   ar
    17     2     1    1
    18    19    18    2
    19     1    18    1
    20    18    20    1
    21    21    20   ar
    22    21    22   ar
    23    20    25   ar
    24    22    23   ar
    25    25    24   ar
    26    23    24   ar
    27    23    26    1
    28    30    28    1
    29    28    31    1
    30    28    27    1
    31    26    27    2
    32    27    29    1
    33    29    33    1
    34    29    32    1
@<TRIPOS>MOLECULE
./../dock_file/temp/a532dc9f5ed69242cba02dd1bfd8034d/Camostat_Ligand_CID_2536:hmTMPRSS6:20230414003330/Camostat_Ligand_CID_2536:hmTMPRSS6_out_5.pdbqt
 33 34 0 0 0
SMALL
GASTEIGER

@<TRIPOS>ATOM
      1  O         -0.6120   -8.7160    6.7790 O.3     1  LIG1       -0.2750
      2  C          0.3700   -9.6500    6.6540 C.ar    1  LIG1        0.0790
      3  C          1.0370   -9.8030    5.4390 C.ar    1  LIG1        0.0380
      4  C          2.0430  -10.7600    5.3110 C.ar    1  LIG1        0.0100
      5  C          2.3840  -11.5640    6.3990 C.ar    1  LIG1       -0.0490
      6  C          1.7160  -11.4110    7.6150 C.ar    1  LIG1        0.0100
      7  C          0.7090  -10.4540    7.7420 C.ar    1  LIG1        0.0380
      8  C          3.4710  -12.5980    6.2620 C.3     1  LIG1        0.1490
      9  C          3.2140  -13.5770    5.1410 C.2     1  LIG1        0.2630
     10  O          3.7530  -13.5560    4.0430 O.2     1  LIG1       -0.2650
     11  O          2.2790  -14.5010    5.5430 O.3     1  LIG1       -0.3120
     12  C          1.2930  -14.8470    4.5930 C.3     1  LIG1        0.2810
     13  C          0.1570  -13.8470    4.6510 C.2     1  LIG1        0.2430
     14  O         -0.4430  -13.6920    5.7180 O.2     1  LIG1       -0.2710
     15  N         -0.1420  -13.1450    3.4830 N.am    1  LIG1       -0.3590
     16  C          0.5550  -13.2900    2.2060 C.3     1  LIG1        0.1520
     17  C         -1.2210  -12.1660    3.4910 C.3     1  LIG1        0.1520
     18  C         -0.1530   -7.3970    6.7910 C.2     1  LIG1        0.2980
     19  O          0.7910   -6.9770    7.4430 O.2     1  LIG1       -0.2590
     20  C         -0.9770   -6.5350    5.9060 C.ar    1  LIG1        0.0400
     21  C         -0.9540   -6.7290    4.5260 C.ar    1  LIG1        0.0200
     22  C         -1.7290   -5.9190    3.6950 C.ar    1  LIG1        0.0330
     23  C         -2.5260   -4.9160    4.2440 C.ar    1  LIG1        0.0750
     24  C         -2.5500   -4.7220    5.6260 C.ar    1  LIG1        0.0330
     25  C         -1.7750   -5.5310    6.4570 C.ar    1  LIG1        0.0200
     26  N         -3.3030   -4.1040    3.4110 N.pl3   1  LIG1       -0.0660
     27  C         -4.5260   -4.4800    3.1210 C.cat   1  LIG1        0.6920
     28  N         -5.1720   -5.6190    3.5490 N.pl3   1  LIG1       -0.2330
     29  N         -5.3220   -3.7100    2.3060 N.pl3   1  LIG1       -0.2330
     30  H         -4.7090   -6.2560    4.1390 H       1  LIG1        0.1740
     31  H         -6.0980   -5.7960    3.2620 H       1  LIG1        0.1740
     32  H         -4.9760   -2.8680    1.9330 H       1  LIG1        0.1740
     33  H         -6.2380   -4.0030    2.0960 H       1  LIG1        0.1740
@<TRIPOS>BOND
     1    32    29    1
     2    33    29    1
     3    16    15    1
     4    29    27    1
     5    27    26    2
     6    27    28    1
     7    31    28    1
     8    26    23    1
     9    15    17    1
    10    15    13   am
    11    28    30    1
    12    22    23   ar
    13    22    21   ar
    14    10     9    2
    15    23    24   ar
    16    21    20   ar
    17    12    13    1
    18    12    11    1
    19    13    14    2
    20     9    11    1
    21     9     8    1
    22     4     3   ar
    23     4     5   ar
    24     3     2   ar
    25    24    25   ar
    26    20    25   ar
    27    20    18    1
    28     8     5    1
    29     5     6   ar
    30     2     1    1
    31     2     7   ar
    32     1    18    1
    33    18    19    2
    34     6     7   ar
@<TRIPOS>MOLECULE
./../dock_file/temp/a532dc9f5ed69242cba02dd1bfd8034d/Camostat_Ligand_CID_2536:hmTMPRSS6:20230414003330/Camostat_Ligand_CID_2536:hmTMPRSS6_out_5.pdbqt
 33 34 0 0 0
SMALL
GASTEIGER

@<TRIPOS>ATOM
      1  O         -0.8860   -9.8400    7.7840 O.3     1  LIG1       -0.2750
      2  C         -1.0320   -9.0560    6.6810 C.ar    1  LIG1        0.0790
      3  C          0.0250   -8.2530    6.2510 C.ar    1  LIG1        0.0380
      4  C         -0.1250   -7.4500    5.1210 C.ar    1  LIG1        0.0100
      5  C         -1.3310   -7.4490    4.4200 C.ar    1  LIG1       -0.0490
      6  C         -2.3880   -8.2520    4.8510 C.ar    1  LIG1        0.0100
      7  C         -2.2380   -9.0550    5.9810 C.ar    1  LIG1        0.0380
      8  C         -1.4930   -6.5810    3.1990 C.3     1  LIG1        0.1490
      9  C         -2.5060   -5.4770    3.3920 C.2     1  LIG1        0.2630
     10  O         -3.6240   -5.4460    2.8960 O.2     1  LIG1       -0.2650
     11  O         -1.9790   -4.5080    4.2130 O.3     1  LIG1       -0.3120
     12  C         -2.5940   -4.3570    5.4740 C.3     1  LIG1        0.2810
     13  C         -3.6300   -3.2540    5.4060 C.2     1  LIG1        0.2430
     14  O         -3.3040   -2.1620    4.9330 O.2     1  LIG1       -0.2710
     15  N         -4.9100   -3.5440    5.8810 N.am    1  LIG1       -0.3590
     16  C         -5.3370   -4.8270    6.4340 C.3     1  LIG1        0.1520
     17  C         -5.9430   -2.5180    5.8290 C.3     1  LIG1        0.1520
     18  C         -0.8840  -11.2110    7.5180 C.2     1  LIG1        0.2980
     19  O         -1.7670  -11.9980    7.8220 O.2     1  LIG1       -0.2590
     20  C          0.3600  -11.6180    6.8150 C.ar    1  LIG1        0.0400
     21  C          1.5960  -11.4630    7.4400 C.ar    1  LIG1        0.0200
     22  C          2.7640  -11.8460    6.7800 C.ar    1  LIG1        0.0330
     23  C          2.6960  -12.3830    5.4960 C.ar    1  LIG1        0.0750
     24  C          1.4590  -12.5390    4.8700 C.ar    1  LIG1        0.0330
     25  C          0.2910  -12.1560    5.5290 C.ar    1  LIG1        0.0200
     26  N          3.8670  -12.7670    4.8340 N.pl3   1  LIG1       -0.0660
     27  C          4.3100  -13.9920    4.9890 C.cat   1  LIG1        0.6920
     28  N          3.7480  -14.9920    5.7510 N.pl3   1  LIG1       -0.2330
     29  N          5.4580  -14.4080    4.3560 N.pl3   1  LIG1       -0.2330
     30  H          2.9210  -14.8210    6.2570 H       1  LIG1        0.1740
     31  H          4.1750  -15.8790    5.7910 H       1  LIG1        0.1740
     32  H          5.9550  -13.7860    3.7790 H       1  LIG1        0.1740
     33  H          5.7800  -15.3310    4.4800 H       1  LIG1        0.1740
@<TRIPOS>BOND
     1    10     9    2
     2     8     9    1
     3     8     5    1
     4     9    11    1
     5    32    29    1
     6    11    12    1
     7    29    33    1
     8    29    27    1
     9     5     6   ar
    10     5     4   ar
    11    26    27    2
    12    26    23    1
    13     6     7   ar
    14    24    23   ar
    15    24    25   ar
    16    14    13    2
    17    27    28    1
    18     4     3   ar
    19    13    12    1
    20    13    15   am
    21    23    22   ar
    22    25    20   ar
    23    28    31    1
    24    28    30    1
    25    17    15    1
    26    15    16    1
    27     7     2   ar
    28     3     2   ar
    29     2     1    1
    30    22    21   ar
    31    20    21   ar
    32    20    18    1
    33    18     1    1
    34    18    19    2
@<TRIPOS>MOLECULE
./../dock_file/temp/a532dc9f5ed69242cba02dd1bfd8034d/Camostat_Ligand_CID_2536:hmTMPRSS6:20230414003330/Camostat_Ligand_CID_2536:hmTMPRSS6_out_5.pdbqt
 33 34 0 0 0
SMALL
GASTEIGER

@<TRIPOS>ATOM
      1  O          4.7510  -13.2710    3.5140 O.3     1  LIG1       -0.2750
      2  C          5.7710  -12.3870    3.6860 C.ar    1  LIG1        0.0790
      3  C          6.7350  -12.6150    4.6670 C.ar    1  LIG1        0.0380
      4  C          7.7800  -11.7090    4.8430 C.ar    1  LIG1        0.0100
      5  C          7.8620  -10.5740    4.0360 C.ar    1  LIG1       -0.0490
      6  C          6.8970  -10.3450    3.0550 C.ar    1  LIG1        0.0100
      7  C          5.8520  -11.2520    2.8790 C.ar    1  LIG1        0.0380
      8  C          8.9910   -9.5940    4.2260 C.3     1  LIG1        0.1490
      9  C          8.5120   -8.1920    4.5190 C.2     1  LIG1        0.2630
     10  O          7.7240   -7.8820    5.4010 O.2     1  LIG1       -0.2650
     11  O          9.0990   -7.3130    3.6400 O.3     1  LIG1       -0.3120
     12  C          8.6810   -5.9670    3.7300 C.3     1  LIG1        0.2810
     13  C          9.8220   -5.1130    4.2400 C.2     1  LIG1        0.2430
     14  O         10.0810   -5.1260    5.4460 O.2     1  LIG1       -0.2710
     15  N         10.5290   -4.3580    3.3020 N.am    1  LIG1       -0.3590
     16  C         10.2630   -4.3270    1.8660 C.3     1  LIG1        0.1520
     17  C         11.6410   -3.5260    3.7440 C.3     1  LIG1        0.1520
     18  C          4.0880  -13.6200    4.6930 C.2     1  LIG1        0.2980
     19  O          4.0970  -14.7240    5.2160 O.2     1  LIG1       -0.2590
     20  C          3.3360  -12.4650    5.2470 C.ar    1  LIG1        0.0400
     21  C          3.2030  -12.3170    6.6270 C.ar    1  LIG1        0.0200
     22  C          2.4970  -11.2320    7.1470 C.ar    1  LIG1        0.0330
     23  C          1.9220  -10.2960    6.2870 C.ar    1  LIG1        0.0750
     24  C          2.0550  -10.4450    4.9060 C.ar    1  LIG1        0.0330
     25  C          2.7610  -11.5300    4.3860 C.ar    1  LIG1        0.0200
     26  N          1.2140   -9.2080    6.8080 N.pl3   1  LIG1       -0.0660
     27  C          1.8320   -8.0610    6.9550 C.cat   1  LIG1        0.6920
     28  N          3.1450   -7.7760    6.6490 N.pl3   1  LIG1       -0.2330
     29  N          1.1720   -6.9680    7.4630 N.pl3   1  LIG1       -0.2330
     30  H          3.7280   -8.4760    6.2770 H       1  LIG1        0.1740
     31  H          3.5010   -6.8700    6.8050 H       1  LIG1        0.1740
     32  H          0.2250   -7.0400    7.7210 H       1  LIG1        0.1740
     33  H          1.6470   -6.1110    7.5680 H       1  LIG1        0.1740
@<TRIPOS>BOND
     1    16    15    1
     2     7     6   ar
     3     7     2   ar
     4     6     5   ar
     5    15    17    1
     6    15    13   am
     7     1     2    1
     8     1    18    1
     9    11    12    1
    10    11     9    1
    11     2     3   ar
    12    12    13    1
    13     5     8    1
    14     5     4   ar
    15     8     9    1
    16    13    14    2
    17    25    24   ar
    18    25    20   ar
    19     9    10    2
    20     3     4   ar
    21    18    19    2
    22    18    20    1
    23    24    23   ar
    24    20    21   ar
    25    30    28    1
    26    23    26    1
    27    23    22   ar
    28    21    22   ar
    29    28    31    1
    30    28    27    1
    31    26    27    2
    32    27    29    1
    33    29    33    1
    34    29    32    1
