@<TRIPOS>MOLECULE
./../dock_file/temp/a532dc9f5ed69242cba02dd1bfd8034d/Camostat_Ligand_CID_2536:hmTMPRSS6:20230414003330/Camostat_Ligand_CID_2536:hmTMPRSS6_out_3.pdbqt
 33 34 0 0 0
SMALL
GASTEIGER

@<TRIPOS>ATOM
      1  O         19.9800   -7.3200   32.0740 O.3     1  LIG1       -0.2750
      2  C         18.7580   -6.7430   31.9100 C.ar    1  LIG1        0.0790
      3  C         17.7430   -7.4330   31.2470 C.ar    1  LIG1        0.0380
      4  C         16.4920   -6.8410   31.0800 C.ar    1  LIG1        0.0100
      5  C         16.2550   -5.5590   31.5750 C.ar    1  LIG1       -0.0490
      6  C         17.2700   -4.8680   32.2380 C.ar    1  LIG1        0.0100
      7  C         18.5220   -5.4610   32.4060 C.ar    1  LIG1        0.0380
      8  C         14.9030   -4.9190   31.3940 C.3     1  LIG1        0.1490
      9  C         14.9230   -3.7660   30.4170 C.2     1  LIG1        0.2630
     10  O         14.9360   -2.5810   30.7200 O.2     1  LIG1       -0.2650
     11  O         14.9250   -4.2530   29.1320 O.3     1  LIG1       -0.3120
     12  C         16.0580   -3.9440   28.3490 C.3     1  LIG1        0.2810
     13  C         15.7840   -4.2860   26.8990 C.2     1  LIG1        0.2430
     14  O         15.1050   -3.5080   26.2230 O.2     1  LIG1       -0.2710
     15  N         16.3290   -5.4720   26.4050 N.am    1  LIG1       -0.3590
     16  C         17.1490   -6.4100   27.1680 C.3     1  LIG1        0.1520
     17  C         16.1010   -5.8400   25.0130 C.3     1  LIG1        0.1520
     18  C         20.5800   -7.7440   30.8860 C.2     1  LIG1        0.2980
     19  O         20.5610   -8.8830   30.4440 O.2     1  LIG1       -0.2590
     20  C         21.2770   -6.6210   30.2090 C.ar    1  LIG1        0.0400
     21  C         20.6220   -5.8870   29.2210 C.ar    1  LIG1        0.0200
     22  C         21.2770   -4.8320   28.5850 C.ar    1  LIG1        0.0330
     23  C         22.5880   -4.5120   28.9370 C.ar    1  LIG1        0.0750
     24  C         23.2440   -5.2460   29.9250 C.ar    1  LIG1        0.0330
     25  C         22.5890   -6.3010   30.5610 C.ar    1  LIG1        0.0200
     26  N         23.2450   -3.4540   28.2990 N.pl3   1  LIG1       -0.0660
     27  C         23.2360   -2.2700   28.8640 C.cat   1  LIG1        0.6920
     28  N         22.6380   -1.9180   30.0540 N.pl3   1  LIG1       -0.2330
     29  N         23.8700   -1.2050   28.2700 N.pl3   1  LIG1       -0.2330
     30  H         22.1490   -2.5920   30.5780 H       1  LIG1        0.1740
     31  H         22.6980   -0.9900   30.3790 H       1  LIG1        0.1740
     32  H         24.3380   -1.3250   27.4120 H       1  LIG1        0.1740
     33  H         23.8570   -0.3210   28.7040 H       1  LIG1        0.1740
@<TRIPOS>BOND
     1    17    15    1
     2    14    13    2
     3    15    13   am
     4    15    16    1
     5    13    12    1
     6    32    29    1
     7    29    33    1
     8    29    27    1
     9    26    27    2
    10    26    23    1
    11    12    11    1
    12    22    23   ar
    13    22    21   ar
    14    27    28    1
    15    23    24   ar
    16    11     9    1
    17    21    20   ar
    18    24    25   ar
    19    28    31    1
    20    28    30    1
    21    20    25   ar
    22    20    18    1
    23     9    10    2
    24     9     8    1
    25    19    18    2
    26    18     1    1
    27     4     3   ar
    28     4     5   ar
    29     3     2   ar
    30     8     5    1
    31     5     6   ar
    32     2     1    1
    33     2     7   ar
    34     6     7   ar
@<TRIPOS>MOLECULE
./../dock_file/temp/a532dc9f5ed69242cba02dd1bfd8034d/Camostat_Ligand_CID_2536:hmTMPRSS6:20230414003330/Camostat_Ligand_CID_2536:hmTMPRSS6_out_3.pdbqt
 33 34 0 0 0
SMALL
GASTEIGER

@<TRIPOS>ATOM
      1  O         14.4750   -4.4310   31.0980 O.3     1  LIG1       -0.2750
      2  C         14.9440   -4.0420   32.3150 C.ar    1  LIG1        0.0790
      3  C         14.0550   -3.6150   33.3020 C.ar    1  LIG1        0.0380
      4  C         14.5360   -3.2170   34.5480 C.ar    1  LIG1        0.0100
      5  C         15.9060   -3.2470   34.8100 C.ar    1  LIG1       -0.0490
      6  C         16.7940   -3.6740   33.8240 C.ar    1  LIG1        0.0100
      7  C         16.3130   -4.0720   32.5760 C.ar    1  LIG1        0.0380
      8  C         16.4250   -2.8170   36.1580 C.3     1  LIG1        0.1490
      9  C         16.2750   -1.3330   36.4010 C.2     1  LIG1        0.2630
     10  O         15.8190   -0.8240   37.4150 O.2     1  LIG1       -0.2650
     11  O         16.7330   -0.6400   35.3050 O.3     1  LIG1       -0.3120
     12  C         16.1200    0.6070   35.0550 C.3     1  LIG1        0.2810
     13  C         15.3480    0.5430   33.7540 C.2     1  LIG1        0.2430
     14  O         15.6180   -0.3510   32.9470 O.2     1  LIG1       -0.2710
     15  N         14.3590    1.5050   33.5450 N.am    1  LIG1       -0.3590
     16  C         14.0000    2.5680   34.4820 C.3     1  LIG1        0.1520
     17  C         13.5840    1.4790   32.3120 C.3     1  LIG1        0.1520
     18  C         14.9070   -3.6340   30.0350 C.2     1  LIG1        0.2980
     19  O         14.7650   -2.4240   29.9470 O.2     1  LIG1       -0.2590
     20  C         15.5640   -4.4540   28.9850 C.ar    1  LIG1        0.0400
     21  C         16.1800   -5.6580   29.3230 C.ar    1  LIG1        0.0200
     22  C         16.7960   -6.4280   28.3370 C.ar    1  LIG1        0.0330
     23  C         16.7980   -5.9930   27.0120 C.ar    1  LIG1        0.0750
     24  C         16.1820   -4.7880   26.6730 C.ar    1  LIG1        0.0330
     25  C         15.5660   -4.0180   27.6590 C.ar    1  LIG1        0.0200
     26  N         17.4170   -6.7650   26.0230 N.pl3   1  LIG1       -0.0660
     27  C         16.7250   -7.1110   24.9640 C.cat   1  LIG1        0.6920
     28  N         15.4110   -6.8010   24.6870 N.pl3   1  LIG1       -0.2330
     29  N         17.2950   -7.8690   23.9690 N.pl3   1  LIG1       -0.2330
     30  H         14.8880   -6.2610   25.3230 H       1  LIG1        0.1740
     31  H         14.9950   -7.1200   23.8540 H       1  LIG1        0.1740
     32  H         18.2330   -8.1570   24.0460 H       1  LIG1        0.1740
     33  H         16.7650   -8.1230   23.1790 H       1  LIG1        0.1740
@<TRIPOS>BOND
     1    33    29    1
     2    31    28    1
     3    29    32    1
     4    29    27    1
     5    28    27    1
     6    28    30    1
     7    27    26    2
     8    26    23    1
     9    24    23   ar
    10    24    25   ar
    11    23    22   ar
    12    25    20   ar
    13    22    21   ar
    14    20    21   ar
    15    20    18    1
    16    19    18    2
    17    18     1    1
    18     1     2    1
    19    17    15    1
    20     2     7   ar
    21     2     3   ar
    22     7     6   ar
    23    14    13    2
    24     3     4   ar
    25    15    13   am
    26    15    16    1
    27    13    12    1
    28     6     5   ar
    29     4     5   ar
    30     5     8    1
    31    12    11    1
    32    11     9    1
    33     8     9    1
    34     9    10    2
@<TRIPOS>MOLECULE
./../dock_file/temp/a532dc9f5ed69242cba02dd1bfd8034d/Camostat_Ligand_CID_2536:hmTMPRSS6:20230414003330/Camostat_Ligand_CID_2536:hmTMPRSS6_out_3.pdbqt
 33 34 0 0 0
SMALL
GASTEIGER

@<TRIPOS>ATOM
      1  O         23.2300   -3.2010   29.6880 O.3     1  LIG1       -0.2750
      2  C         22.0070   -3.7970   29.6910 C.ar    1  LIG1        0.0790
      3  C         21.1210   -3.5690   30.7440 C.ar    1  LIG1        0.0380
      4  C         19.8680   -4.1800   30.7460 C.ar    1  LIG1        0.0100
      5  C         19.4990   -5.0200   29.6950 C.ar    1  LIG1       -0.0490
      6  C         20.3850   -5.2480   28.6420 C.ar    1  LIG1        0.0100
      7  C         21.6390   -4.6370   28.6400 C.ar    1  LIG1        0.0380
      8  C         18.1450   -5.6800   29.6970 C.3     1  LIG1        0.1490
      9  C         17.1990   -5.0880   28.6780 C.2     1  LIG1        0.2630
     10  O         16.8400   -3.9200   28.6390 O.2     1  LIG1       -0.2650
     11  O         16.8030   -6.0670   27.7970 O.3     1  LIG1       -0.3120
     12  C         17.2180   -5.9050   26.4570 C.3     1  LIG1        0.2810
     13  C         16.0050   -5.7460   25.5640 C.2     1  LIG1        0.2430
     14  O         15.2850   -4.7540   25.7120 O.2     1  LIG1       -0.2710
     15  N         15.7760   -6.7370   24.6090 N.am    1  LIG1       -0.3590
     16  C         16.6120   -7.9160   24.3940 C.3     1  LIG1        0.1520
     17  C         14.6260   -6.6240   23.7210 C.3     1  LIG1        0.1520
     18  C         23.3670   -2.1730   28.7520 C.2     1  LIG1        0.2980
     19  O         23.6780   -2.3150   27.5790 O.2     1  LIG1       -0.2590
     20  C         23.0970   -0.8490   29.3670 C.ar    1  LIG1        0.0400
     21  C         22.7410    0.2330   28.5640 C.ar    1  LIG1        0.0200
     22  C         22.4870    1.4770   29.1420 C.ar    1  LIG1        0.0330
     23  C         22.5910    1.6390   30.5230 C.ar    1  LIG1        0.0750
     24  C         22.9480    0.5560   31.3270 C.ar    1  LIG1        0.0330
     25  C         23.2020   -0.6870   30.7490 C.ar    1  LIG1        0.0200
     26  N         22.3370    2.8870   31.1030 N.pl3   1  LIG1       -0.0660
     27  C         23.3280    3.7350   31.2420 C.cat   1  LIG1        0.6920
     28  N         24.6430    3.5490   30.8750 N.pl3   1  LIG1       -0.2330
     29  N         23.1200    4.9710   31.8060 N.pl3   1  LIG1       -0.2330
     30  H         24.9230    2.7020   30.4590 H       1  LIG1        0.1740
     31  H         25.3030    4.2630   31.0320 H       1  LIG1        0.1740
     32  H         22.2200    5.2280   32.1110 H       1  LIG1        0.1740
     33  H         23.8720    5.5990   31.9050 H       1  LIG1        0.1740
@<TRIPOS>BOND
     1    17    15    1
     2    16    15    1
     3    15    13   am
     4    13    14    2
     5    13    12    1
     6    12    11    1
     7    19    18    2
     8    11     9    1
     9    21    22   ar
    10    21    20   ar
    11    10     9    2
    12     7     6   ar
    13     7     2   ar
    14     6     5   ar
    15     9     8    1
    16    18    20    1
    17    18     1    1
    18    22    23   ar
    19    20    25   ar
    20     1     2    1
    21     2     3   ar
    22     5     8    1
    23     5     4   ar
    24    30    28    1
    25    23    26    1
    26    23    24   ar
    27     3     4   ar
    28    25    24   ar
    29    28    31    1
    30    28    27    1
    31    26    27    2
    32    27    29    1
    33    29    33    1
    34    29    32    1
@<TRIPOS>MOLECULE
./../dock_file/temp/a532dc9f5ed69242cba02dd1bfd8034d/Camostat_Ligand_CID_2536:hmTMPRSS6:20230414003330/Camostat_Ligand_CID_2536:hmTMPRSS6_out_3.pdbqt
 33 34 0 0 0
SMALL
GASTEIGER

@<TRIPOS>ATOM
      1  O         23.5010   -3.0820   29.4320 O.3     1  LIG1       -0.2750
      2  C         22.2970   -3.6530   29.7090 C.ar    1  LIG1        0.0790
      3  C         21.5580   -3.2250   30.8120 C.ar    1  LIG1        0.0380
      4  C         20.3250   -3.8110   31.0950 C.ar    1  LIG1        0.0100
      5  C         19.8300   -4.8250   30.2750 C.ar    1  LIG1       -0.0490
      6  C         20.5690   -5.2540   29.1720 C.ar    1  LIG1        0.0100
      7  C         21.8030   -4.6670   28.8890 C.ar    1  LIG1        0.0380
      8  C         18.4970   -5.4590   30.5810 C.3     1  LIG1        0.1490
      9  C         17.3470   -4.4840   30.4910 C.2     1  LIG1        0.2630
     10  O         16.7190   -4.0380   31.4410 O.2     1  LIG1       -0.2650
     11  O         17.1130   -4.1710   29.1730 O.3     1  LIG1       -0.3120
     12  C         16.9060   -5.2610   28.2990 C.3     1  LIG1        0.2810
     13  C         16.1530   -4.7930   27.0710 C.2     1  LIG1        0.2430
     14  O         15.5080   -3.7430   27.1340 O.2     1  LIG1       -0.2710
     15  N         16.2420   -5.5830   25.9240 N.am    1  LIG1       -0.3590
     16  C         17.0070   -6.8220   25.8060 C.3     1  LIG1        0.1520
     17  C         15.5420   -5.1700   24.7140 C.3     1  LIG1        0.1520
     18  C         23.4750   -2.1740   28.3700 C.2     1  LIG1        0.2980
     19  O         23.4780   -2.4660   27.1840 O.2     1  LIG1       -0.2590
     20  C         23.4610   -0.7740   28.8630 C.ar    1  LIG1        0.0400
     21  C         22.6580    0.1780   28.2340 C.ar    1  LIG1        0.0200
     22  C         22.6440    1.4940   28.6980 C.ar    1  LIG1        0.0330
     23  C         23.4330    1.8580   29.7880 C.ar    1  LIG1        0.0750
     24  C         24.2370    0.9060   30.4170 C.ar    1  LIG1        0.0330
     25  C         24.2510   -0.4090   29.9540 C.ar    1  LIG1        0.0200
     26  N         23.4190    3.1780   30.2530 N.pl3   1  LIG1       -0.0660
     27  C         22.6610    3.4800   31.2790 C.cat   1  LIG1        0.6920
     28  N         21.8400    2.6310   31.9900 N.pl3   1  LIG1       -0.2330
     29  N         22.6180    4.7650   31.7660 N.pl3   1  LIG1       -0.2330
     30  H         21.7800    1.6810   31.7400 H       1  LIG1        0.1740
     31  H         21.3130    2.9760   32.7470 H       1  LIG1        0.1740
     32  H         23.1610    5.4700   31.3450 H       1  LIG1        0.1740
     33  H         22.0450    4.9800   32.5380 H       1  LIG1        0.1740
@<TRIPOS>BOND
     1    17    15    1
     2    16    15    1
     3    15    13   am
     4    13    14    2
     5    13    12    1
     6    19    18    2
     7    21    22   ar
     8    21    20   ar
     9    12    11    1
    10    18    20    1
    11    18     1    1
    12    22    23   ar
    13    20    25   ar
    14     7     6   ar
    15     7     2   ar
    16     6     5   ar
    17    11     9    1
    18     1     2    1
    19     2     3   ar
    20    23    26    1
    21    23    24   ar
    22    25    24   ar
    23    26    27    2
    24     5     8    1
    25     5     4   ar
    26     9     8    1
    27     9    10    2
    28     3     4   ar
    29    27    29    1
    30    27    28    1
    31    32    29    1
    32    30    28    1
    33    29    33    1
    34    28    31    1
@<TRIPOS>MOLECULE
./../dock_file/temp/a532dc9f5ed69242cba02dd1bfd8034d/Camostat_Ligand_CID_2536:hmTMPRSS6:20230414003330/Camostat_Ligand_CID_2536:hmTMPRSS6_out_3.pdbqt
 33 34 0 0 0
SMALL
GASTEIGER

@<TRIPOS>ATOM
      1  O         14.1780   -7.4160   33.4800 O.3     1  LIG1       -0.2750
      2  C         14.9170   -6.7550   32.5470 C.ar    1  LIG1        0.0790
      3  C         15.1340   -5.3830   32.6720 C.ar    1  LIG1        0.0380
      4  C         15.8910   -4.7070   31.7160 C.ar    1  LIG1        0.0100
      5  C         16.4320   -5.4020   30.6340 C.ar    1  LIG1       -0.0490
      6  C         16.2140   -6.7750   30.5090 C.ar    1  LIG1        0.0100
      7  C         15.4570   -7.4510   31.4660 C.ar    1  LIG1        0.0380
      8  C         17.2490   -4.6720   29.6010 C.3     1  LIG1        0.1490
      9  C         16.4010   -3.9940   28.5510 C.2     1  LIG1        0.2630
     10  O         15.3980   -3.3290   28.7700 O.2     1  LIG1       -0.2650
     11  O         16.9310   -4.2370   27.3060 O.3     1  LIG1       -0.3120
     12  C         16.8240   -5.5620   26.8290 C.3     1  LIG1        0.2810
     13  C         15.7930   -5.6230   25.7220 C.2     1  LIG1        0.2430
     14  O         14.9170   -4.7550   25.6780 O.2     1  LIG1       -0.2710
     15  N         15.9020   -6.6650   24.8000 N.am    1  LIG1       -0.3590
     16  C         16.9320   -7.7010   24.8100 C.3     1  LIG1        0.1520
     17  C         14.9380   -6.7610   23.7110 C.3     1  LIG1        0.1520
     18  C         14.9060   -7.8380   34.5960 C.2     1  LIG1        0.2980
     19  O         15.7280   -8.7410   34.6100 O.2     1  LIG1       -0.2590
     20  C         14.5430   -7.0490   35.8010 C.ar    1  LIG1        0.0400
     21  C         13.4300   -7.4080   36.5590 C.ar    1  LIG1        0.0200
     22  C         13.0890   -6.6680   37.6920 C.ar    1  LIG1        0.0330
     23  C         13.8620   -5.5680   38.0650 C.ar    1  LIG1        0.0750
     24  C         14.9760   -5.2090   37.3050 C.ar    1  LIG1        0.0330
     25  C         15.3160   -5.9490   36.1730 C.ar    1  LIG1        0.0200
     26  N         13.5200   -4.8260   39.2000 N.pl3   1  LIG1       -0.0660
     27  C         12.6560   -3.8470   39.0810 C.cat   1  LIG1        0.6920
     28  N         12.0130   -3.4360   37.9330 N.pl3   1  LIG1       -0.2330
     29  N         12.2930   -3.0930   40.1720 N.pl3   1  LIG1       -0.2330
     30  H         12.1860   -3.8950   37.0810 H       1  LIG1        0.1740
     31  H         11.3800   -2.6820   37.9670 H       1  LIG1        0.1740
     32  H         12.6830   -3.2860   41.0550 H       1  LIG1        0.1740
     33  H         11.6430   -2.3610   40.0700 H       1  LIG1        0.1740
@<TRIPOS>BOND
     1    17    15    1
     2    15    16    1
     3    15    13   am
     4    14    13    2
     5    13    12    1
     6    12    11    1
     7    11     9    1
     8     9    10    2
     9     9     8    1
    10     8     5    1
    11     6     5   ar
    12     6     7   ar
    13     5     4   ar
    14     7     2   ar
    15     4     3   ar
    16     2     3   ar
    17     2     1    1
    18     1    18    1
    19    18    19    2
    20    18    20    1
    21    20    25   ar
    22    20    21   ar
    23    25    24   ar
    24    21    22   ar
    25    30    28    1
    26    24    23   ar
    27    22    23   ar
    28    28    31    1
    29    28    27    1
    30    23    26    1
    31    27    26    2
    32    27    29    1
    33    33    29    1
    34    29    32    1
@<TRIPOS>MOLECULE
./../dock_file/temp/a532dc9f5ed69242cba02dd1bfd8034d/Camostat_Ligand_CID_2536:hmTMPRSS6:20230414003330/Camostat_Ligand_CID_2536:hmTMPRSS6_out_3.pdbqt
 33 34 0 0 0
SMALL
GASTEIGER

@<TRIPOS>ATOM
      1  O         19.4830   -7.2800   28.4870 O.3     1  LIG1       -0.2750
      2  C         18.3690   -6.5050   28.5870 C.ar    1  LIG1        0.0790
      3  C         18.1910   -5.4230   27.7250 C.ar    1  LIG1        0.0380
      4  C         17.0500   -4.6300   27.8280 C.ar    1  LIG1        0.0100
      5  C         16.0840   -4.9180   28.7930 C.ar    1  LIG1       -0.0490
      6  C         16.2620   -6.0000   29.6550 C.ar    1  LIG1        0.0100
      7  C         17.4040   -6.7940   29.5520 C.ar    1  LIG1        0.0380
      8  C         14.8500   -4.0600   28.9050 C.3     1  LIG1        0.1490
      9  C         14.3140   -3.9810   30.3150 C.2     1  LIG1        0.2630
     10  O         13.3750   -4.6300   30.7540 O.2     1  LIG1       -0.2650
     11  O         15.0450   -3.0640   31.0330 O.3     1  LIG1       -0.3120
     12  C         15.1430   -3.2940   32.4230 C.3     1  LIG1        0.2810
     13  C         16.3550   -4.1550   32.7130 C.2     1  LIG1        0.2430
     14  O         17.4750   -3.7140   32.4410 O.2     1  LIG1       -0.2710
     15  N         16.1310   -5.4080   33.2850 N.am    1  LIG1       -0.3590
     16  C         14.8230   -5.9580   33.6350 C.3     1  LIG1        0.1520
     17  C         17.2660   -6.2680   33.5910 C.3     1  LIG1        0.1520
     18  C         20.3510   -7.1840   29.5770 C.2     1  LIG1        0.2980
     19  O         20.5410   -8.0520   30.4160 O.2     1  LIG1       -0.2590
     20  C         21.0230   -5.8600   29.6110 C.ar    1  LIG1        0.0400
     21  C         21.9570   -5.5270   28.6300 C.ar    1  LIG1        0.0200
     22  C         22.5880   -4.2840   28.6610 C.ar    1  LIG1        0.0330
     23  C         22.2860   -3.3730   29.6740 C.ar    1  LIG1        0.0750
     24  C         21.3520   -3.7060   30.6550 C.ar    1  LIG1        0.0330
     25  C         20.7210   -4.9500   30.6240 C.ar    1  LIG1        0.0200
     26  N         22.9190   -2.1260   29.7050 N.pl3   1  LIG1       -0.0660
     27  C         23.9860   -1.9760   30.4530 C.cat   1  LIG1        0.6920
     28  N         24.5900   -2.9270   31.2470 N.pl3   1  LIG1       -0.2330
     29  N         24.6370   -0.7660   30.5120 N.pl3   1  LIG1       -0.2330
     30  H         24.2190   -3.8370   31.2940 H       1  LIG1        0.1740
     31  H         25.3920   -2.6940   31.7690 H       1  LIG1        0.1740
     32  H         24.3050   -0.0020   29.9880 H       1  LIG1        0.1740
     33  H         25.4380   -0.6660   31.0770 H       1  LIG1        0.1740
@<TRIPOS>BOND
     1     3     4   ar
     2     3     2   ar
     3     4     5   ar
     4     1     2    1
     5     1    18    1
     6     2     7   ar
     7    21    22   ar
     8    21    20   ar
     9    22    23   ar
    10     5     8    1
    11     5     6   ar
    12     8     9    1
    13     7     6   ar
    14    18    20    1
    15    18    19    2
    16    20    25   ar
    17    23    26    1
    18    23    24   ar
    19    26    27    2
    20    32    29    1
    21     9    10    2
    22     9    11    1
    23    27    29    1
    24    27    28    1
    25    29    33    1
    26    25    24   ar
    27    11    12    1
    28    28    30    1
    29    28    31    1
    30    12    13    1
    31    14    13    2
    32    13    15   am
    33    15    17    1
    34    15    16    1
@<TRIPOS>MOLECULE
./../dock_file/temp/a532dc9f5ed69242cba02dd1bfd8034d/Camostat_Ligand_CID_2536:hmTMPRSS6:20230414003330/Camostat_Ligand_CID_2536:hmTMPRSS6_out_3.pdbqt
 33 34 0 0 0
SMALL
GASTEIGER

@<TRIPOS>ATOM
      1  O         21.4780   -5.0730   30.3010 O.3     1  LIG1       -0.2750
      2  C         20.1480   -5.1410   30.0220 C.ar    1  LIG1        0.0790
      3  C         19.2110   -4.8240   31.0050 C.ar    1  LIG1        0.0380
      4  C         17.8480   -4.8940   30.7190 C.ar    1  LIG1        0.0100
      5  C         17.4210   -5.2800   29.4480 C.ar    1  LIG1       -0.0490
      6  C         18.3580   -5.5980   28.4640 C.ar    1  LIG1        0.0100
      7  C         19.7220   -5.5280   28.7510 C.ar    1  LIG1        0.0380
      8  C         15.9490   -5.3560   29.1380 C.3     1  LIG1        0.1490
      9  C         15.3480   -4.0120   28.7970 C.2     1  LIG1        0.2630
     10  O         15.7690   -3.2440   27.9440 O.2     1  LIG1       -0.2650
     11  O         14.2520   -3.7840   29.5950 O.3     1  LIG1       -0.3120
     12  C         14.2280   -4.4640   30.8320 C.3     1  LIG1        0.2810
     13  C         14.6690   -3.5280   31.9370 C.2     1  LIG1        0.2430
     14  O         14.9180   -2.3530   31.6550 O.2     1  LIG1       -0.2710
     15  N         14.7590   -4.0540   33.2270 N.am    1  LIG1       -0.3590
     16  C         14.4580   -5.4330   33.6020 C.3     1  LIG1        0.1520
     17  C         15.1710   -3.1890   34.3250 C.3     1  LIG1        0.1520
     18  C         22.2760   -4.7100   29.2130 C.2     1  LIG1        0.2980
     19  O         22.6760   -5.4640   28.3400 O.2     1  LIG1       -0.2590
     20  C         22.6050   -3.2620   29.2510 C.ar    1  LIG1        0.0400
     21  C         22.4180   -2.5340   30.4250 C.ar    1  LIG1        0.0200
     22  C         22.7280   -1.1750   30.4600 C.ar    1  LIG1        0.0330
     23  C         23.2230   -0.5420   29.3200 C.ar    1  LIG1        0.0750
     24  C         23.4090   -1.2700   28.1440 C.ar    1  LIG1        0.0330
     25  C         23.1000   -2.6290   28.1090 C.ar    1  LIG1        0.0200
     26  N         23.5330    0.8220   29.3550 N.pl3   1  LIG1       -0.0660
     27  C         22.8400    1.6490   28.6100 C.cat   1  LIG1        0.6920
     28  N         21.8010    1.3350   27.7590 N.pl3   1  LIG1       -0.2330
     29  N         23.1130    2.9960   28.6150 N.pl3   1  LIG1       -0.2330
     30  H         21.5080    0.4010   27.6640 H       1  LIG1        0.1740
     31  H         21.3540    2.0470   27.2460 H       1  LIG1        0.1740
     32  H         23.8340    3.3500   29.1840 H       1  LIG1        0.1740
     33  H         22.5850    3.6070   28.0510 H       1  LIG1        0.1740
@<TRIPOS>BOND
     1    31    28    1
     2    30    28    1
     3    28    27    1
     4    10     9    2
     5    33    29    1
     6    25    24   ar
     7    25    20   ar
     8    24    23   ar
     9    19    18    2
    10     6     7   ar
    11     6     5   ar
    12    27    29    1
    13    27    26    2
    14    29    32    1
    15     7     2   ar
    16     9     8    1
    17     9    11    1
    18     8     5    1
    19    18    20    1
    20    18     1    1
    21    20    21   ar
    22    23    26    1
    23    23    22   ar
    24     5     4   ar
    25    11    12    1
    26     2     1    1
    27     2     3   ar
    28    21    22   ar
    29     4     3   ar
    30    12    13    1
    31    14    13    2
    32    13    15   am
    33    15    16    1
    34    15    17    1
@<TRIPOS>MOLECULE
./../dock_file/temp/a532dc9f5ed69242cba02dd1bfd8034d/Camostat_Ligand_CID_2536:hmTMPRSS6:20230414003330/Camostat_Ligand_CID_2536:hmTMPRSS6_out_3.pdbqt
 33 34 0 0 0
SMALL
GASTEIGER

@<TRIPOS>ATOM
      1  O         14.1370   -2.4730   35.9890 O.3     1  LIG1       -0.2750
      2  C         14.1270   -3.0160   34.7410 C.ar    1  LIG1        0.0790
      3  C         15.0000   -2.5370   33.7640 C.ar    1  LIG1        0.0380
      4  C         14.9890   -3.0940   32.4860 C.ar    1  LIG1        0.0100
      5  C         14.1060   -4.1310   32.1830 C.ar    1  LIG1       -0.0490
      6  C         13.2330   -4.6100   33.1600 C.ar    1  LIG1        0.0100
      7  C         13.2440   -4.0530   34.4390 C.ar    1  LIG1        0.0380
      8  C         14.0940   -4.7330   30.8020 C.3     1  LIG1        0.1490
      9  C         15.4600   -4.7530   30.1570 C.2     1  LIG1        0.2630
     10  O         16.3750   -5.5070   30.4590 O.2     1  LIG1       -0.2650
     11  O         15.5180   -3.7940   29.1740 O.3     1  LIG1       -0.3120
     12  C         16.5380   -3.9490   28.2100 C.3     1  LIG1        0.2810
     13  C         15.9200   -4.2520   26.8600 C.2     1  LIG1        0.2430
     14  O         15.1430   -3.4310   26.3650 O.2     1  LIG1       -0.2710
     15  N         16.2780   -5.4520   26.2450 N.am    1  LIG1       -0.3590
     16  C         17.2050   -6.4410   26.7920 C.3     1  LIG1        0.1520
     17  C         15.7170   -5.7840   24.9420 C.3     1  LIG1        0.1520
     18  C         14.9150   -3.1730   36.9140 C.2     1  LIG1        0.2980
     19  O         16.1210   -3.0540   37.0650 O.2     1  LIG1       -0.2590
     20  C         14.0860   -4.1180   37.7040 C.ar    1  LIG1        0.0400
     21  C         12.7900   -3.7650   38.0770 C.ar    1  LIG1        0.0200
     22  C         12.0110   -4.6540   38.8190 C.ar    1  LIG1        0.0330
     23  C         12.5290   -5.8940   39.1890 C.ar    1  LIG1        0.0750
     24  C         13.8260   -6.2480   38.8170 C.ar    1  LIG1        0.0330
     25  C         14.6050   -5.3600   38.0750 C.ar    1  LIG1        0.0200
     26  N         11.7480   -6.7850   39.9330 N.pl3   1  LIG1       -0.0660
     27  C         11.1380   -7.7650   39.3110 C.cat   1  LIG1        0.6920
     28  N         11.1670   -8.0440   37.9620 N.pl3   1  LIG1       -0.2330
     29  N         10.3610   -8.6620   40.0060 N.pl3   1  LIG1       -0.2330
     30  H         11.6890   -7.4740   37.3530 H       1  LIG1        0.1740
     31  H         10.6640   -8.8130   37.6080 H       1  LIG1        0.1740
     32  H         10.2580   -8.5730   40.9810 H       1  LIG1        0.1740
     33  H          9.9080   -9.3940   39.5280 H       1  LIG1        0.1740
@<TRIPOS>BOND
     1    17    15    1
     2    15    16    1
     3    15    13   am
     4    14    13    2
     5    13    12    1
     6    12    11    1
     7    11     9    1
     8     9    10    2
     9     9     8    1
    10     8     5    1
    11     5     4   ar
    12     5     6   ar
    13     4     3   ar
    14     6     7   ar
    15     3     2   ar
    16     7     2   ar
    17     2     1    1
    18     1    18    1
    19    18    19    2
    20    18    20    1
    21    30    28    1
    22    31    28    1
    23    20    25   ar
    24    20    21   ar
    25    28    27    1
    26    25    24   ar
    27    21    22   ar
    28    24    23   ar
    29    22    23   ar
    30    23    26    1
    31    27    26    2
    32    27    29    1
    33    33    29    1
    34    29    32    1
@<TRIPOS>MOLECULE
./../dock_file/temp/a532dc9f5ed69242cba02dd1bfd8034d/Camostat_Ligand_CID_2536:hmTMPRSS6:20230414003330/Camostat_Ligand_CID_2536:hmTMPRSS6_out_3.pdbqt
 33 34 0 0 0
SMALL
GASTEIGER

@<TRIPOS>ATOM
      1  O         13.8830   -6.0530   32.4500 O.3     1  LIG1       -0.2750
      2  C         14.9140   -5.6490   31.6600 C.ar    1  LIG1        0.0790
      3  C         14.7850   -4.5040   30.8740 C.ar    1  LIG1        0.0380
      4  C         15.8410   -4.0910   30.0650 C.ar    1  LIG1        0.0100
      5  C         17.0300   -4.8210   30.0410 C.ar    1  LIG1       -0.0490
      6  C         17.1590   -5.9670   30.8260 C.ar    1  LIG1        0.0100
      7  C         16.1020   -6.3810   31.6370 C.ar    1  LIG1        0.0380
      8  C         18.1720   -4.3750   29.1660 C.3     1  LIG1        0.1490
      9  C         18.5690   -5.4110   28.1410 C.2     1  LIG1        0.2630
     10  O         19.4040   -6.2890   28.3080 O.2     1  LIG1       -0.2650
     11  O         17.8460   -5.2170   26.9880 O.3     1  LIG1       -0.3120
     12  C         17.3340   -6.3790   26.3690 C.3     1  LIG1        0.2810
     13  C         16.1470   -6.0130   25.5030 C.2     1  LIG1        0.2430
     14  O         15.5720   -4.9400   25.7060 O.2     1  LIG1       -0.2710
     15  N         15.7740   -6.9190   24.5090 N.am    1  LIG1       -0.3590
     16  C         16.4370   -8.1900   24.2290 C.3     1  LIG1        0.1520
     17  C         14.6430   -6.6070   23.6440 C.3     1  LIG1        0.1520
     18  C         14.2410   -6.3110   33.7760 C.2     1  LIG1        0.2980
     19  O         14.2460   -7.4090   34.3120 O.2     1  LIG1       -0.2590
     20  C         14.6110   -5.0590   34.4830 C.ar    1  LIG1        0.0400
     21  C         15.8140   -4.9840   35.1850 C.ar    1  LIG1        0.0200
     22  C         16.1620   -3.8080   35.8490 C.ar    1  LIG1        0.0330
     23  C         15.3070   -2.7070   35.8120 C.ar    1  LIG1        0.0750
     24  C         14.1030   -2.7810   35.1100 C.ar    1  LIG1        0.0330
     25  C         13.7550   -3.9570   34.4460 C.ar    1  LIG1        0.0200
     26  N         15.6560   -1.5270   36.4790 N.pl3   1  LIG1       -0.0660
     27  C         16.3730   -0.6300   35.8450 C.cat   1  LIG1        0.6920
     28  N         16.8480   -0.7020   34.5540 N.pl3   1  LIG1       -0.2330
     29  N         16.7370    0.5430   36.4640 N.pl3   1  LIG1       -0.2330
     30  H         16.6560   -1.4930   34.0020 H       1  LIG1        0.1740
     31  H         17.3810    0.0400   34.1840 H       1  LIG1        0.1740
     32  H         16.4580    0.7170   37.3920 H       1  LIG1        0.1740
     33  H         17.2750    1.2090   35.9780 H       1  LIG1        0.1740
@<TRIPOS>BOND
     1    17    15    1
     2    16    15    1
     3    15    13   am
     4    13    14    2
     5    13    12    1
     6    12    11    1
     7    11     9    1
     8     9    10    2
     9     9     8    1
    10     8     5    1
    11     5     4   ar
    12     5     6   ar
    13     4     3   ar
    14     6     7   ar
    15     3     2   ar
    16     7     2   ar
    17     2     1    1
    18     1    18    1
    19    18    19    2
    20    18    20    1
    21    30    28    1
    22    31    28    1
    23    25    20   ar
    24    25    24   ar
    25    20    21   ar
    26    28    27    1
    27    24    23   ar
    28    21    22   ar
    29    23    22   ar
    30    23    26    1
    31    27    29    1
    32    27    26    2
    33    33    29    1
    34    29    32    1
