@<TRIPOS>MOLECULE
./../dock_file/temp/a532dc9f5ed69242cba02dd1bfd8034d/Camostat_Ligand_CID_2536:hmTMPRSS6:20230414003330/Camostat_Ligand_CID_2536:hmTMPRSS6_out_1.pdbqt
 33 34 0 0 0
SMALL
GASTEIGER

@<TRIPOS>ATOM
      1  O         -5.3670  -14.5830   16.8600 O.3     1  LIG1       -0.2750
      2  C         -4.6360  -15.5210   16.1990 C.ar    1  LIG1        0.0790
      3  C         -4.8560  -15.7490   14.8410 C.ar    1  LIG1        0.0380
      4  C         -4.1060  -16.7100   14.1640 C.ar    1  LIG1        0.0100
      5  C         -3.1340  -17.4440   14.8450 C.ar    1  LIG1       -0.0490
      6  C         -2.9140  -17.2160   16.2040 C.ar    1  LIG1        0.0100
      7  C         -3.6640  -16.2540   16.8810 C.ar    1  LIG1        0.0380
      8  C         -2.3240  -18.4820   14.1140 C.3     1  LIG1        0.1490
      9  C         -2.2840  -19.8110   14.8320 C.2     1  LIG1        0.2630
     10  O         -3.2510  -20.3910   15.3050 O.2     1  LIG1       -0.2650
     11  O         -0.9890  -20.2710   14.8740 O.3     1  LIG1       -0.3120
     12  C         -0.2020  -19.8250   15.9580 C.3     1  LIG1        0.2810
     13  C          1.1120  -19.2760   15.4430 C.2     1  LIG1        0.2430
     14  O          1.4190  -19.4790   14.2650 O.2     1  LIG1       -0.2710
     15  N          1.9020  -18.5550   16.3390 N.am    1  LIG1       -0.3590
     16  C          1.5660  -18.2800   17.7340 C.3     1  LIG1        0.1520
     17  C          3.1710  -17.9990   15.8870 C.3     1  LIG1        0.1520
     18  C         -5.0330  -13.2640   16.5420 C.2     1  LIG1        0.2980
     19  O         -5.2110  -12.7250   15.4610 O.2     1  LIG1       -0.2590
     20  C         -4.4020  -12.5780   17.6980 C.ar    1  LIG1        0.0400
     21  C         -5.1660  -11.7490   18.5190 C.ar    1  LIG1        0.0200
     22  C         -4.5730  -11.1060   19.6050 C.ar    1  LIG1        0.0330
     23  C         -3.2170  -11.2900   19.8710 C.ar    1  LIG1        0.0750
     24  C         -2.4520  -12.1190   19.0500 C.ar    1  LIG1        0.0330
     25  C         -3.0440  -12.7630   17.9630 C.ar    1  LIG1        0.0200
     26  N         -2.6220  -10.6440   20.9600 N.pl3   1  LIG1       -0.0660
     27  C         -2.4470  -11.3130   22.0750 C.cat   1  LIG1        0.6920
     28  N         -2.7870  -12.6250   22.3230 N.pl3   1  LIG1       -0.2330
     29  N         -1.8670  -10.7150   23.1690 N.pl3   1  LIG1       -0.2330
     30  H         -3.2120  -13.1650   21.6190 H       1  LIG1        0.1740
     31  H         -2.6060  -13.0210   23.2070 H       1  LIG1        0.1740
     32  H         -1.5770   -9.7760   23.1200 H       1  LIG1        0.1740
     33  H         -1.7410  -11.2270   24.0000 H       1  LIG1        0.1740
@<TRIPOS>BOND
     1     8     9    1
     2     8     5    1
     3     4     3   ar
     4     4     5   ar
     5    14    13    2
     6     9    11    1
     7     9    10    2
     8     3     2   ar
     9     5     6   ar
    10    11    12    1
    11    13    12    1
    12    13    15   am
    13    19    18    2
    14    17    15    1
    15     2     1    1
    16     2     7   ar
    17     6     7   ar
    18    15    16    1
    19    18     1    1
    20    18    20    1
    21    20    25   ar
    22    20    21   ar
    23    25    24   ar
    24    21    22   ar
    25    24    23   ar
    26    22    23   ar
    27    23    26    1
    28    26    27    2
    29    30    28    1
    30    27    28    1
    31    27    29    1
    32    28    31    1
    33    32    29    1
    34    29    33    1
@<TRIPOS>MOLECULE
./../dock_file/temp/a532dc9f5ed69242cba02dd1bfd8034d/Camostat_Ligand_CID_2536:hmTMPRSS6:20230414003330/Camostat_Ligand_CID_2536:hmTMPRSS6_out_1.pdbqt
 33 34 0 0 0
SMALL
GASTEIGER

@<TRIPOS>ATOM
      1  O         -5.5850  -14.4200   16.8770 O.3     1  LIG1       -0.2750
      2  C         -4.7820  -15.3890   16.3620 C.ar    1  LIG1        0.0790
      3  C         -3.9370  -16.1160   17.2020 C.ar    1  LIG1        0.0380
      4  C         -3.1140  -17.1090   16.6740 C.ar    1  LIG1        0.0100
      5  C         -3.1350  -17.3780   15.3050 C.ar    1  LIG1       -0.0490
      6  C         -3.9790  -16.6520   14.4650 C.ar    1  LIG1        0.0100
      7  C         -4.8030  -15.6580   14.9930 C.ar    1  LIG1        0.0380
      8  C         -2.2450  -18.4520   14.7330 C.3     1  LIG1        0.1490
      9  C         -1.7170  -19.4000   15.7840 C.2     1  LIG1        0.2630
     10  O         -2.3090  -20.3780   16.2190 O.2     1  LIG1       -0.2650
     11  O         -0.4630  -18.9950   16.1790 O.3     1  LIG1       -0.3120
     12  C         -0.0750  -19.3540   17.4880 C.3     1  LIG1        0.2810
     13  C         -0.4080  -18.2280   18.4440 C.2     1  LIG1        0.2430
     14  O          0.1710  -17.1470   18.3130 O.2     1  LIG1       -0.2710
     15  N         -1.3690  -18.4810   19.4240 N.am    1  LIG1       -0.3590
     16  C         -2.0860  -19.7420   19.6020 C.3     1  LIG1        0.1520
     17  C         -1.7290  -17.4260   20.3630 C.3     1  LIG1        0.1520
     18  C         -5.1880  -13.1180   16.5640 C.2     1  LIG1        0.2980
     19  O         -5.3440  -12.5650   15.4860 O.2     1  LIG1       -0.2590
     20  C         -4.5210  -12.4680   17.7210 C.ar    1  LIG1        0.0400
     21  C         -5.2760  -11.7540   18.6500 C.ar    1  LIG1        0.0200
     22  C         -4.6490  -11.1450   19.7370 C.ar    1  LIG1        0.0330
     23  C         -3.2670  -11.2490   19.8940 C.ar    1  LIG1        0.0750
     24  C         -2.5110  -11.9640   18.9650 C.ar    1  LIG1        0.0330
     25  C         -3.1380  -12.5730   17.8780 C.ar    1  LIG1        0.0200
     26  N         -2.6380  -10.6380   20.9840 N.pl3   1  LIG1       -0.0660
     27  C         -2.4760  -11.3250   22.0900 C.cat   1  LIG1        0.6920
     28  N         -2.8610  -12.6270   22.3270 N.pl3   1  LIG1       -0.2330
     29  N         -1.8630  -10.7610   23.1840 N.pl3   1  LIG1       -0.2330
     30  H         -3.3130  -13.1430   21.6220 H       1  LIG1        0.1740
     31  H         -2.6850  -13.0400   23.2040 H       1  LIG1        0.1740
     32  H         -1.5400   -9.8330   23.1430 H       1  LIG1        0.1740
     33  H         -1.7470  -11.2880   24.0080 H       1  LIG1        0.1740
@<TRIPOS>BOND
     1     6     7   ar
     2     6     5   ar
     3     8     5    1
     4     8     9    1
     5     7     2   ar
     6     5     4   ar
     7    19    18    2
     8     9    11    1
     9     9    10    2
    10    11    12    1
    11     2     1    1
    12     2     3   ar
    13    18     1    1
    14    18    20    1
    15     4     3   ar
    16    12    13    1
    17    20    25   ar
    18    20    21   ar
    19    25    24   ar
    20    14    13    2
    21    13    15   am
    22    21    22   ar
    23    24    23   ar
    24    15    16    1
    25    15    17    1
    26    22    23   ar
    27    23    26    1
    28    26    27    2
    29    30    28    1
    30    27    28    1
    31    27    29    1
    32    28    31    1
    33    32    29    1
    34    29    33    1
@<TRIPOS>MOLECULE
./../dock_file/temp/a532dc9f5ed69242cba02dd1bfd8034d/Camostat_Ligand_CID_2536:hmTMPRSS6:20230414003330/Camostat_Ligand_CID_2536:hmTMPRSS6_out_1.pdbqt
 33 34 0 0 0
SMALL
GASTEIGER

@<TRIPOS>ATOM
      1  O         -2.8930  -11.1630   19.4750 O.3     1  LIG1       -0.2750
      2  C         -3.8510  -11.2410   20.4390 C.ar    1  LIG1        0.0790
      3  C         -3.5220  -11.7030   21.7140 C.ar    1  LIG1        0.0380
      4  C         -4.5040  -11.7830   22.7010 C.ar    1  LIG1        0.0100
      5  C         -5.8140  -11.4000   22.4150 C.ar    1  LIG1       -0.0490
      6  C         -6.1430  -10.9390   21.1400 C.ar    1  LIG1        0.0100
      7  C         -5.1610  -10.8590   20.1520 C.ar    1  LIG1        0.0380
      8  C         -6.8750  -11.4860   23.4810 C.3     1  LIG1        0.1490
      9  C         -7.3230  -10.1320   23.9770 C.2     1  LIG1        0.2630
     10  O         -7.6550   -9.1920   23.2690 O.2     1  LIG1       -0.2650
     11  O         -7.3020  -10.1160   25.3520 O.3     1  LIG1       -0.3120
     12  C         -8.0740   -9.1130   25.9770 C.3     1  LIG1        0.2810
     13  C         -7.8270   -9.1370   27.4710 C.2     1  LIG1        0.2430
     14  O         -8.1630  -10.1370   28.1120 O.2     1  LIG1       -0.2710
     15  N         -7.2180   -8.0180   28.0400 N.am    1  LIG1       -0.3590
     16  C         -6.7930   -6.8240   27.3130 C.3     1  LIG1        0.1520
     17  C         -6.9520   -7.9980   29.4720 C.3     1  LIG1        0.1520
     18  C         -2.6350  -12.3710   18.8220 C.2     1  LIG1        0.2980
     19  O         -1.6470  -13.0720   18.9840 O.2     1  LIG1       -0.2590
     20  C         -3.7230  -12.7070   17.8690 C.ar    1  LIG1        0.0400
     21  C         -4.0170  -11.8450   16.8140 C.ar    1  LIG1        0.0200
     22  C         -5.0380  -12.1610   15.9180 C.ar    1  LIG1        0.0330
     23  C         -5.7660  -13.3400   16.0780 C.ar    1  LIG1        0.0750
     24  C         -5.4720  -14.2030   17.1340 C.ar    1  LIG1        0.0330
     25  C         -4.4510  -13.8870   18.0290 C.ar    1  LIG1        0.0200
     26  N         -6.7900  -13.6570   15.1800 N.pl3   1  LIG1       -0.0660
     27  C         -7.9840  -13.1490   15.3740 C.cat   1  LIG1        0.6920
     28  N         -8.3770  -12.3080   16.3920 N.pl3   1  LIG1       -0.2330
     29  N         -9.0180  -13.4360   14.5140 N.pl3   1  LIG1       -0.2330
     30  H         -7.7280  -12.0260   17.0770 H       1  LIG1        0.1740
     31  H         -9.3080  -11.9890   16.4350 H       1  LIG1        0.1740
     32  H         -8.8670  -14.0270   13.7430 H       1  LIG1        0.1740
     33  H         -9.9090  -13.0480   14.6710 H       1  LIG1        0.1740
@<TRIPOS>BOND
     1    32    29    1
     2    29    33    1
     3    29    27    1
     4    26    27    2
     5    26    23    1
     6    27    28    1
     7    22    23   ar
     8    22    21   ar
     9    23    24   ar
    10    28    31    1
    11    28    30    1
    12    21    20   ar
    13    24    25   ar
    14    20    25   ar
    15    20    18    1
    16    18    19    2
    17    18     1    1
    18     1     2    1
    19     7     2   ar
    20     7     6   ar
    21     2     3   ar
    22     6     5   ar
    23     3     4   ar
    24     5     4   ar
    25     5     8    1
    26    10     9    2
    27     8     9    1
    28     9    11    1
    29    11    12    1
    30    12    13    1
    31    16    15    1
    32    13    15   am
    33    13    14    2
    34    15    17    1
@<TRIPOS>MOLECULE
./../dock_file/temp/a532dc9f5ed69242cba02dd1bfd8034d/Camostat_Ligand_CID_2536:hmTMPRSS6:20230414003330/Camostat_Ligand_CID_2536:hmTMPRSS6_out_1.pdbqt
 33 34 0 0 0
SMALL
GASTEIGER

@<TRIPOS>ATOM
      1  O         -2.4650  -12.8220   20.5940 O.3     1  LIG1       -0.2750
      2  C         -3.0380  -13.2740   21.7420 C.ar    1  LIG1        0.0790
      3  C         -3.1520  -12.4280   22.8460 C.ar    1  LIG1        0.0380
      4  C         -3.7380  -12.8910   24.0220 C.ar    1  LIG1        0.0100
      5  C         -4.2130  -14.2010   24.0970 C.ar    1  LIG1       -0.0490
      6  C         -4.1000  -15.0470   22.9930 C.ar    1  LIG1        0.0100
      7  C         -3.5120  -14.5830   21.8160 C.ar    1  LIG1        0.0380
      8  C         -4.8480  -14.7020   25.3680 C.3     1  LIG1        0.1490
      9  C         -6.3560  -14.6120   25.3490 C.2     1  LIG1        0.2630
     10  O         -7.1160  -15.5140   25.0280 O.2     1  LIG1       -0.2650
     11  O         -6.7450  -13.3560   25.7510 O.3     1  LIG1       -0.3120
     12  C         -7.7950  -12.7630   25.0160 C.3     1  LIG1        0.2810
     13  C         -7.2520  -11.6180   24.1860 C.2     1  LIG1        0.2430
     14  O         -7.0420  -10.5340   24.7370 O.2     1  LIG1       -0.2710
     15  N         -7.0110  -11.8620   22.8340 N.am    1  LIG1       -0.3590
     16  C         -7.2330  -13.1340   22.1500 C.3     1  LIG1        0.1520
     17  C         -6.4810  -10.7930   21.9970 C.3     1  LIG1        0.1520
     18  C         -3.0460  -11.6600   20.0800 C.2     1  LIG1        0.2980
     19  O         -2.9020  -10.5330   20.5280 O.2     1  LIG1       -0.2590
     20  C         -3.8980  -11.9630   18.9020 C.ar    1  LIG1        0.0400
     21  C         -3.4210  -11.7180   17.6150 C.ar    1  LIG1        0.0200
     22  C         -4.2200  -12.0030   16.5080 C.ar    1  LIG1        0.0330
     23  C         -5.4970  -12.5330   16.6880 C.ar    1  LIG1        0.0750
     24  C         -5.9750  -12.7790   17.9760 C.ar    1  LIG1        0.0330
     25  C         -5.1760  -12.4940   19.0820 C.ar    1  LIG1        0.0200
     26  N         -6.2990  -12.8200   15.5780 N.pl3   1  LIG1       -0.0660
     27  C         -6.0920  -13.9330   14.9170 C.cat   1  LIG1        0.6920
     28  N         -5.1460  -14.8990   15.1840 N.pl3   1  LIG1       -0.2330
     29  N         -6.8580  -14.2510   13.8200 N.pl3   1  LIG1       -0.2330
     30  H         -4.5320  -14.7890   15.9450 H       1  LIG1        0.1740
     31  H         -5.0840  -15.6980   14.6120 H       1  LIG1        0.1740
     32  H         -7.5720  -13.6420   13.5250 H       1  LIG1        0.1740
     33  H         -6.6930  -15.0900   13.3320 H       1  LIG1        0.1740
@<TRIPOS>BOND
     1    33    29    1
     2    32    29    1
     3    29    27    1
     4    31    28    1
     5    27    28    1
     6    27    26    2
     7    28    30    1
     8    26    23    1
     9    22    23   ar
    10    22    21   ar
    11    23    24   ar
    12    21    20   ar
    13    24    25   ar
    14    20    25   ar
    15    20    18    1
    16    18    19    2
    17    18     1    1
    18     1     2    1
    19     2     7   ar
    20     2     3   ar
    21     7     6   ar
    22    17    15    1
    23    16    15    1
    24    15    13   am
    25     3     4   ar
    26     6     5   ar
    27     4     5   ar
    28     5     8    1
    29    13    14    2
    30    13    12    1
    31    12    11    1
    32    10     9    2
    33     9     8    1
    34     9    11    1
@<TRIPOS>MOLECULE
./../dock_file/temp/a532dc9f5ed69242cba02dd1bfd8034d/Camostat_Ligand_CID_2536:hmTMPRSS6:20230414003330/Camostat_Ligand_CID_2536:hmTMPRSS6_out_1.pdbqt
 33 34 0 0 0
SMALL
GASTEIGER

@<TRIPOS>ATOM
      1  O         -6.9320  -13.2520   15.6260 O.3     1  LIG1       -0.2750
      2  C         -5.8520  -13.0760   16.4360 C.ar    1  LIG1        0.0790
      3  C         -5.7170  -13.8400   17.5950 C.ar    1  LIG1        0.0380
      4  C         -4.6110  -13.6590   18.4250 C.ar    1  LIG1        0.0100
      5  C         -3.6390  -12.7140   18.0950 C.ar    1  LIG1       -0.0490
      6  C         -3.7740  -11.9500   16.9360 C.ar    1  LIG1        0.0100
      7  C         -4.8810  -12.1310   16.1060 C.ar    1  LIG1        0.0380
      8  C         -2.4440  -12.5180   18.9910 C.3     1  LIG1        0.1490
      9  C         -2.7560  -11.6930   20.2180 C.2     1  LIG1        0.2630
     10  O         -3.2700  -10.5840   20.2140 O.2     1  LIG1       -0.2650
     11  O         -2.3730  -12.3820   21.3440 O.3     1  LIG1       -0.3120
     12  C         -3.3660  -13.1770   21.9580 C.3     1  LIG1        0.2810
     13  C         -4.1760  -12.3290   22.9160 C.2     1  LIG1        0.2430
     14  O         -3.6140  -11.8470   23.9040 O.2     1  LIG1       -0.2710
     15  N         -5.5250  -12.1320   22.6170 N.am    1  LIG1       -0.3590
     16  C         -6.2210  -12.6720   21.4520 C.3     1  LIG1        0.1520
     17  C         -6.3430  -11.3160   23.5050 C.3     1  LIG1        0.1520
     18  C         -7.2000  -14.5860   15.3080 C.2     1  LIG1        0.2980
     19  O         -8.0730  -15.2760   15.8110 O.2     1  LIG1       -0.2590
     20  C         -6.2640  -15.0870   14.2700 C.ar    1  LIG1        0.0400
     21  C         -6.3540  -14.6120   12.9620 C.ar    1  LIG1        0.0200
     22  C         -5.4740  -15.0830   11.9880 C.ar    1  LIG1        0.0330
     23  C         -4.5060  -16.0300   12.3200 C.ar    1  LIG1        0.0750
     24  C         -4.4160  -16.5060   13.6290 C.ar    1  LIG1        0.0330
     25  C         -5.2950  -16.0350   14.6030 C.ar    1  LIG1        0.0200
     26  N         -3.6240  -16.5030   11.3420 N.pl3   1  LIG1       -0.0660
     27  C         -3.9630  -17.5570   10.6390 C.cat   1  LIG1        0.6920
     28  N         -5.1240  -18.2910   10.7430 N.pl3   1  LIG1       -0.2330
     29  N         -3.1240  -18.0520    9.6690 N.pl3   1  LIG1       -0.2330
     30  H         -5.8090  -18.0390   11.4030 H       1  LIG1        0.1740
     31  H         -5.2680  -19.0690   10.1570 H       1  LIG1        0.1740
     32  H         -2.2600  -17.6150    9.4950 H       1  LIG1        0.1740
     33  H         -3.3900  -18.8440    9.1470 H       1  LIG1        0.1740
@<TRIPOS>BOND
     1    33    29    1
     2    32    29    1
     3    29    27    1
     4    31    28    1
     5    27    28    1
     6    27    26    2
     7    28    30    1
     8    26    23    1
     9    22    23   ar
    10    22    21   ar
    11    23    24   ar
    12    21    20   ar
    13    24    25   ar
    14    20    25   ar
    15    20    18    1
    16    18     1    1
    17    18    19    2
    18     1     2    1
    19     7     2   ar
    20     7     6   ar
    21     2     3   ar
    22     6     5   ar
    23     3     4   ar
    24     5     4   ar
    25     5     8    1
    26     8     9    1
    27    10     9    2
    28     9    11    1
    29    11    12    1
    30    16    15    1
    31    12    13    1
    32    15    13   am
    33    15    17    1
    34    13    14    2
@<TRIPOS>MOLECULE
./../dock_file/temp/a532dc9f5ed69242cba02dd1bfd8034d/Camostat_Ligand_CID_2536:hmTMPRSS6:20230414003330/Camostat_Ligand_CID_2536:hmTMPRSS6_out_1.pdbqt
 33 34 0 0 0
SMALL
GASTEIGER

@<TRIPOS>ATOM
      1  O         -2.6360  -11.2140   19.3740 O.3     1  LIG1       -0.2750
      2  C         -3.6450  -11.2620   20.2870 C.ar    1  LIG1        0.0790
      3  C         -4.8920  -10.7200   19.9780 C.ar    1  LIG1        0.0380
      4  C         -5.9250  -10.7690   20.9130 C.ar    1  LIG1        0.0100
      5  C         -5.7120  -11.3620   22.1570 C.ar    1  LIG1       -0.0490
      6  C         -4.4640  -11.9050   22.4660 C.ar    1  LIG1        0.0100
      7  C         -3.4310  -11.8550   21.5310 C.ar    1  LIG1        0.0380
      8  C         -6.8280  -11.4160   23.1680 C.3     1  LIG1        0.1490
      9  C         -8.1910  -11.5650   22.5330 C.2     1  LIG1        0.2630
     10  O         -9.0170  -10.6710   22.4090 O.2     1  LIG1       -0.2650
     11  O         -8.3630  -12.8630   22.1130 O.3     1  LIG1       -0.3120
     12  C         -9.4010  -13.0860   21.1830 C.3     1  LIG1        0.2810
     13  C         -8.8380  -13.7400   19.9380 C.2     1  LIG1        0.2430
     14  O         -7.7750  -13.3180   19.4750 O.2     1  LIG1       -0.2710
     15  N         -9.5590  -14.8010   19.3890 N.am    1  LIG1       -0.3590
     16  C        -10.8110  -15.3380   19.9170 C.3     1  LIG1        0.1520
     17  C         -9.0530  -15.4690   18.1960 C.3     1  LIG1        0.1520
     18  C         -2.4350  -12.4080   18.6770 C.2     1  LIG1        0.2980
     19  O         -1.4470  -13.1230   18.7580 O.2     1  LIG1       -0.2590
     20  C         -3.5850  -12.7090   17.7870 C.ar    1  LIG1        0.0400
     21  C         -4.3300  -13.8710   17.9810 C.ar    1  LIG1        0.0200
     22  C         -5.4120  -14.1540   17.1460 C.ar    1  LIG1        0.0330
     23  C         -5.7470  -13.2740   16.1170 C.ar    1  LIG1        0.0750
     24  C         -5.0010  -12.1110   15.9230 C.ar    1  LIG1        0.0330
     25  C         -3.9200  -11.8290   16.7580 C.ar    1  LIG1        0.0200
     26  N         -6.8310  -13.5580   15.2790 N.pl3   1  LIG1       -0.0660
     27  C         -8.0040  -13.0470   15.5660 C.cat   1  LIG1        0.6920
     28  N         -8.3210  -12.2320   16.6320 N.pl3   1  LIG1       -0.2330
     29  N         -9.0950  -13.3010   14.7690 N.pl3   1  LIG1       -0.2330
     30  H         -7.6270  -11.9750   17.2790 H       1  LIG1        0.1740
     31  H         -9.2450  -11.9080   16.7450 H       1  LIG1        0.1740
     32  H         -9.0000  -13.8710   13.9720 H       1  LIG1        0.1740
     33  H         -9.9700  -12.9110   14.9940 H       1  LIG1        0.1740
@<TRIPOS>BOND
     1    32    29    1
     2    29    33    1
     3    29    27    1
     4    26    27    2
     5    26    23    1
     6    27    28    1
     7    24    23   ar
     8    24    25   ar
     9    23    22   ar
    10    28    31    1
    11    28    30    1
    12    25    20   ar
    13    22    21   ar
    14    20    21   ar
    15    20    18    1
    16    17    15    1
    17    18    19    2
    18    18     1    1
    19     1     2    1
    20    15    16    1
    21    15    13   am
    22    14    13    2
    23    13    12    1
    24     3     2   ar
    25     3     4   ar
    26     2     7   ar
    27     4     5   ar
    28    12    11    1
    29     7     6   ar
    30    11     9    1
    31     5     6   ar
    32     5     8    1
    33    10     9    2
    34     9     8    1
@<TRIPOS>MOLECULE
./../dock_file/temp/a532dc9f5ed69242cba02dd1bfd8034d/Camostat_Ligand_CID_2536:hmTMPRSS6:20230414003330/Camostat_Ligand_CID_2536:hmTMPRSS6_out_1.pdbqt
 33 34 0 0 0
SMALL
GASTEIGER

@<TRIPOS>ATOM
      1  O         -1.5610  -19.4390   15.6510 O.3     1  LIG1       -0.2750
      2  C         -2.3720  -18.3470   15.6960 C.ar    1  LIG1        0.0790
      3  C         -2.5950  -17.6920   16.9070 C.ar    1  LIG1        0.0380
      4  C         -3.4260  -16.5740   16.9530 C.ar    1  LIG1        0.0100
      5  C         -4.0350  -16.1080   15.7870 C.ar    1  LIG1       -0.0490
      6  C         -3.8120  -16.7630   14.5750 C.ar    1  LIG1        0.0100
      7  C         -2.9800  -17.8820   14.5300 C.ar    1  LIG1        0.0380
      8  C         -4.9330  -14.8990   15.8360 C.3     1  LIG1        0.1490
      9  C         -6.3980  -15.2570   15.9230 C.2     1  LIG1        0.2630
     10  O         -6.8500  -16.2760   16.4260 O.2     1  LIG1       -0.2650
     11  O         -7.1490  -14.2590   15.3480 O.3     1  LIG1       -0.3120
     12  C         -7.0150  -12.9730   15.9140 C.3     1  LIG1        0.2810
     13  C         -7.7850  -12.9060   17.2170 C.2     1  LIG1        0.2430
     14  O         -8.9940  -13.1540   17.2050 O.2     1  LIG1       -0.2710
     15  N         -7.0720  -12.5740   18.3690 N.am    1  LIG1       -0.3590
     16  C         -5.6400  -12.2890   18.4260 C.3     1  LIG1        0.1520
     17  C         -7.7680  -12.5060   19.6470 C.3     1  LIG1        0.1520
     18  C         -0.7630  -19.6090   16.7850 C.2     1  LIG1        0.2980
     19  O         -1.0970  -20.1770   17.8130 O.2     1  LIG1       -0.2590
     20  C          0.5720  -18.9860   16.5980 C.ar    1  LIG1        0.0400
     21  C          1.1090  -18.1740   17.5960 C.ar    1  LIG1        0.0200
     22  C          2.3640  -17.5900   17.4210 C.ar    1  LIG1        0.0330
     23  C          3.0810  -17.8170   16.2460 C.ar    1  LIG1        0.0750
     24  C          2.5440  -18.6300   15.2470 C.ar    1  LIG1        0.0330
     25  C          1.2900  -19.2140   15.4230 C.ar    1  LIG1        0.0200
     26  N          4.3390  -17.2310   16.0700 N.pl3   1  LIG1       -0.0660
     27  C          4.4070  -15.9780   15.6900 C.cat   1  LIG1        0.6920
     28  N          3.3550  -15.1270   15.4290 N.pl3   1  LIG1       -0.2330
     29  N          5.6240  -15.3650   15.5060 N.pl3   1  LIG1       -0.2330
     30  H          2.4290  -15.4450   15.5240 H       1  LIG1        0.1740
     31  H          3.5310  -14.2000   15.1470 H       1  LIG1        0.1740
     32  H          6.4560  -15.8670   15.6600 H       1  LIG1        0.1740
     33  H          5.6620  -14.4230   15.2200 H       1  LIG1        0.1740
@<TRIPOS>BOND
     1     7     6   ar
     2     7     2   ar
     3     6     5   ar
     4    31    28    1
     5    33    29    1
     6    24    25   ar
     7    24    23   ar
     8    11    12    1
     9    11     9    1
    10    25    20   ar
    11    28    30    1
    12    28    27    1
    13    29    32    1
    14    29    27    1
    15     1     2    1
    16     1    18    1
    17    27    26    2
    18     2     3   ar
    19     5     8    1
    20     5     4   ar
    21     8     9    1
    22    12    13    1
    23     9    10    2
    24    26    23    1
    25    23    22   ar
    26    20    18    1
    27    20    21   ar
    28    18    19    2
    29     3     4   ar
    30    14    13    2
    31    13    15   am
    32    22    21   ar
    33    15    16    1
    34    15    17    1
@<TRIPOS>MOLECULE
./../dock_file/temp/a532dc9f5ed69242cba02dd1bfd8034d/Camostat_Ligand_CID_2536:hmTMPRSS6:20230414003330/Camostat_Ligand_CID_2536:hmTMPRSS6_out_1.pdbqt
 33 34 0 0 0
SMALL
GASTEIGER

@<TRIPOS>ATOM
      1  O         -5.4670  -14.6110   16.8800 O.3     1  LIG1       -0.2750
      2  C         -4.6430  -15.5820   16.3990 C.ar    1  LIG1        0.0790
      3  C         -3.7980  -16.2730   17.2670 C.ar    1  LIG1        0.0380
      4  C         -2.9540  -17.2670   16.7730 C.ar    1  LIG1        0.0100
      5  C         -2.9550  -17.5720   15.4120 C.ar    1  LIG1       -0.0490
      6  C         -3.8010  -16.8800   14.5440 C.ar    1  LIG1        0.0100
      7  C         -4.6450  -15.8850   15.0380 C.ar    1  LIG1        0.0380
      8  C         -2.0430  -18.6460   14.8780 C.3     1  LIG1        0.1490
      9  C         -2.7940  -19.8060   14.2680 C.2     1  LIG1        0.2630
     10  O         -3.7810  -20.3440   14.7500 O.2     1  LIG1       -0.2650
     11  O         -2.1980  -20.1660   13.0820 O.3     1  LIG1       -0.3120
     12  C         -1.3760  -19.1900   12.4760 C.3     1  LIG1        0.2810
     13  C         -0.4490  -19.8540   11.4800 C.2     1  LIG1        0.2430
     14  O         -0.8480  -20.0350   10.3260 O.2     1  LIG1       -0.2710
     15  N          0.8220  -20.2180   11.9280 N.am    1  LIG1       -0.3590
     16  C          1.3350  -20.0080   13.2800 C.3     1  LIG1        0.1520
     17  C          1.7530  -20.8520   11.0040 C.3     1  LIG1        0.1520
     18  C         -5.0830  -13.3110   16.5430 C.2     1  LIG1        0.2980
     19  O         -5.2240  -12.7880   15.4480 O.2     1  LIG1       -0.2590
     20  C         -4.4490  -12.6240   17.6970 C.ar    1  LIG1        0.0400
     21  C         -3.0640  -12.6630   17.8560 C.ar    1  LIG1        0.0200
     22  C         -2.4690  -12.0170   18.9400 C.ar    1  LIG1        0.0330
     23  C         -3.2580  -11.3330   19.8640 C.ar    1  LIG1        0.0750
     24  C         -4.6440  -11.2950   19.7050 C.ar    1  LIG1        0.0330
     25  C         -5.2390  -11.9410   18.6220 C.ar    1  LIG1        0.0200
     26  N         -2.6610  -10.6850   20.9510 N.pl3   1  LIG1       -0.0660
     27  C         -2.4520  -11.3620   22.0550 C.cat   1  LIG1        0.6920
     28  N         -2.7570  -12.6840   22.2940 N.pl3   1  LIG1       -0.2330
     29  N         -1.8670  -10.7620   23.1460 N.pl3   1  LIG1       -0.2330
     30  H         -3.1810  -13.2260   21.5910 H       1  LIG1        0.1740
     31  H         -2.5520  -13.0860   23.1700 H       1  LIG1        0.1740
     32  H         -1.6000   -9.8160   23.1030 H       1  LIG1        0.1740
     33  H         -1.7150  -11.2810   23.9690 H       1  LIG1        0.1740
@<TRIPOS>BOND
     1    14    13    2
     2    17    15    1
     3    13    15   am
     4    13    12    1
     5    15    16    1
     6    12    11    1
     7    11     9    1
     8     9    10    2
     9     9     8    1
    10     6     7   ar
    11     6     5   ar
    12     8     5    1
    13     7     2   ar
    14     5     4   ar
    15    19    18    2
    16     2     1    1
    17     2     3   ar
    18    18     1    1
    19    18    20    1
    20     4     3   ar
    21    20    21   ar
    22    20    25   ar
    23    21    22   ar
    24    25    24   ar
    25    22    23   ar
    26    24    23   ar
    27    23    26    1
    28    26    27    2
    29    30    28    1
    30    27    28    1
    31    27    29    1
    32    28    31    1
    33    32    29    1
    34    29    33    1
@<TRIPOS>MOLECULE
./../dock_file/temp/a532dc9f5ed69242cba02dd1bfd8034d/Camostat_Ligand_CID_2536:hmTMPRSS6:20230414003330/Camostat_Ligand_CID_2536:hmTMPRSS6_out_1.pdbqt
 33 34 0 0 0
SMALL
GASTEIGER

@<TRIPOS>ATOM
      1  O         -5.6570  -14.5780   17.0250 O.3     1  LIG1       -0.2750
      2  C         -4.6990  -15.5360   17.1530 C.ar    1  LIG1        0.0790
      3  C         -4.2910  -15.9510   18.4210 C.ar    1  LIG1        0.0380
      4  C         -3.3100  -16.9320   18.5520 C.ar    1  LIG1        0.0100
      5  C         -2.7360  -17.5010   17.4140 C.ar    1  LIG1       -0.0490
      6  C         -3.1440  -17.0860   16.1460 C.ar    1  LIG1        0.0100
      7  C         -4.1260  -16.1040   16.0160 C.ar    1  LIG1        0.0380
      8  C         -1.6760  -18.5620   17.5550 C.3     1  LIG1        0.1490
      9  C         -0.5140  -18.1230   18.4150 C.2     1  LIG1        0.2630
     10  O          0.0510  -17.0410   18.3440 O.2     1  LIG1       -0.2650
     11  O         -0.1870  -19.1290   19.2930 O.3     1  LIG1       -0.3120
     12  C         -1.1760  -19.4760   20.2400 C.3     1  LIG1        0.2810
     13  C         -0.5870  -20.4200   21.2670 C.2     1  LIG1        0.2430
     14  O         -0.0300  -21.4500   20.8760 O.2     1  LIG1       -0.2710
     15  N         -0.7030  -20.0620   22.6110 N.am    1  LIG1       -0.3590
     16  C         -1.3410  -18.8460   23.1110 C.3     1  LIG1        0.1520
     17  C         -0.1450  -20.9350   23.6360 C.3     1  LIG1        0.1520
     18  C         -5.1720  -13.3300   16.6260 C.2     1  LIG1        0.2980
     19  O         -5.2470  -12.8630   15.5000 O.2     1  LIG1       -0.2590
     20  C         -4.5220  -12.6210   17.7580 C.ar    1  LIG1        0.0400
     21  C         -3.1310  -12.5600   17.8360 C.ar    1  LIG1        0.0200
     22  C         -2.5210  -11.8940   18.8980 C.ar    1  LIG1        0.0330
     23  C         -3.3010  -11.2890   19.8830 C.ar    1  LIG1        0.0750
     24  C         -4.6930  -11.3500   19.8060 C.ar    1  LIG1        0.0330
     25  C         -5.3030  -12.0160   18.7430 C.ar    1  LIG1        0.0200
     26  N         -2.6890  -10.6210   20.9490 N.pl3   1  LIG1       -0.0660
     27  C         -2.4280  -11.2870   22.0480 C.cat   1  LIG1        0.6920
     28  N         -2.6900  -12.6160   22.3010 N.pl3   1  LIG1       -0.2330
     29  N         -1.8270  -10.6670   23.1190 N.pl3   1  LIG1       -0.2330
     30  H         -3.1200  -13.1720   21.6140 H       1  LIG1        0.1740
     31  H         -2.4470  -13.0080   23.1720 H       1  LIG1        0.1740
     32  H         -1.5870   -9.7140   23.0650 H       1  LIG1        0.1740
     33  H         -1.6350  -11.1780   23.9390 H       1  LIG1        0.1740
@<TRIPOS>BOND
     1    19    18    2
     2     7     6   ar
     3     7     2   ar
     4     6     5   ar
     5    18     1    1
     6    18    20    1
     7     1     2    1
     8     2     3   ar
     9     5     8    1
    10     5     4   ar
    11     8     9    1
    12    20    21   ar
    13    20    25   ar
    14    21    22   ar
    15    10     9    2
    16     9    11    1
    17     3     4   ar
    18    25    24   ar
    19    22    23   ar
    20    11    12    1
    21    24    23   ar
    22    23    26    1
    23    12    13    1
    24    14    13    2
    25    26    27    2
    26    13    15   am
    27    30    28    1
    28    27    28    1
    29    27    29    1
    30    28    31    1
    31    15    16    1
    32    15    17    1
    33    32    29    1
    34    29    33    1
