@<TRIPOS>MOLECULE
./../dock_file/temp/9500775f823359490cf1cd87815470de/Camostat_Ligand_CID_2536:hmTMPRSS11_D:20230418105132/Camostat_Ligand_CID_2536:hmTMPRSS11_D_out_4.pdbqt
 33 34 0 0 0
SMALL
GASTEIGER

@<TRIPOS>ATOM
      1  O         22.6660    6.2450   29.9630 O.3     1  LIG1       -0.2750
      2  C         22.8080    7.4980   29.4530 C.ar    1  LIG1        0.0790
      3  C         23.8170    8.3360   29.9290 C.ar    1  LIG1        0.0380
      4  C         23.9620    9.6200   29.4050 C.ar    1  LIG1        0.0100
      5  C         23.0990   10.0670   28.4040 C.ar    1  LIG1       -0.0490
      6  C         22.0900    9.2300   27.9290 C.ar    1  LIG1        0.0100
      7  C         21.9450    7.9450   28.4530 C.ar    1  LIG1        0.0380
      8  C         23.2560   11.4550   27.8390 C.3     1  LIG1        0.1490
      9  C         22.0960   12.3630   28.1760 C.2     1  LIG1        0.2630
     10  O         21.9700   12.9960   29.2140 O.2     1  LIG1       -0.2650
     11  O         21.2000   12.3700   27.1320 O.3     1  LIG1       -0.3120
     12  C         21.7520   12.2880   25.8350 C.3     1  LIG1        0.2810
     13  C         20.9530   11.3070   25.0030 C.2     1  LIG1        0.2430
     14  O         19.7420   11.4970   24.8630 O.2     1  LIG1       -0.2710
     15  N         21.6440   10.2390   24.4300 N.am    1  LIG1       -0.3590
     16  C         23.0780    9.9890   24.5610 C.3     1  LIG1        0.1520
     17  C         20.9200    9.2730   23.6130 C.3     1  LIG1        0.1520
     18  C         22.8160    5.2210   29.0240 C.2     1  LIG1        0.2980
     19  O         23.7010    5.1480   28.1850 O.2     1  LIG1       -0.2590
     20  C         21.7350    4.2110   29.1570 C.ar    1  LIG1        0.0400
     21  C         20.4260    4.6200   29.4050 C.ar    1  LIG1        0.0200
     22  C         19.4110    3.6710   29.5290 C.ar    1  LIG1        0.0330
     23  C         19.7050    2.3130   29.4050 C.ar    1  LIG1        0.0750
     24  C         21.0160    1.9040   29.1560 C.ar    1  LIG1        0.0330
     25  C         22.0310    2.8530   29.0320 C.ar    1  LIG1        0.0200
     26  N         18.6870    1.3620   29.5290 N.pl3   1  LIG1       -0.0660
     27  C         18.4470    0.8410   30.7080 C.cat   1  LIG1        0.6920
     28  N         19.0940    1.1220   31.8920 N.pl3   1  LIG1       -0.2330
     29  N         17.4550   -0.0970   30.8730 N.pl3   1  LIG1       -0.2330
     30  H         19.8270    1.7780   31.9090 H       1  LIG1        0.1740
     31  H         18.8240    0.6630   32.7210 H       1  LIG1        0.1740
     32  H         16.9160   -0.3840   30.1010 H       1  LIG1        0.1740
     33  H         17.2840   -0.4800   31.7630 H       1  LIG1        0.1740
@<TRIPOS>BOND
     1    17    15    1
     2    15    16    1
     3    15    13   am
     4    14    13    2
     5    13    12    1
     6    12    11    1
     7    11     9    1
     8     8     9    1
     9     8     5    1
    10     6     5   ar
    11     6     7   ar
    12     9    10    2
    13    19    18    2
    14     5     4   ar
    15     7     2   ar
    16    18    20    1
    17    18     1    1
    18    25    24   ar
    19    25    20   ar
    20    24    23   ar
    21    20    21   ar
    22     4     3   ar
    23    21    22   ar
    24    23    22   ar
    25    23    26    1
    26     2     3   ar
    27     2     1    1
    28    26    27    2
    29    32    29    1
    30    27    29    1
    31    27    28    1
    32    29    33    1
    33    28    30    1
    34    28    31    1
@<TRIPOS>MOLECULE
./../dock_file/temp/9500775f823359490cf1cd87815470de/Camostat_Ligand_CID_2536:hmTMPRSS11_D:20230418105132/Camostat_Ligand_CID_2536:hmTMPRSS11_D_out_4.pdbqt
 33 34 0 0 0
SMALL
GASTEIGER

@<TRIPOS>ATOM
      1  O         22.8320    6.2340   30.1580 O.3     1  LIG1       -0.2750
      2  C         22.8560    7.4310   29.5100 C.ar    1  LIG1        0.0790
      3  C         22.0250    7.6460   28.4100 C.ar    1  LIG1        0.0380
      4  C         22.0500    8.8720   27.7470 C.ar    1  LIG1        0.0100
      5  C         22.9030    9.8850   28.1840 C.ar    1  LIG1       -0.0490
      6  C         23.7340    9.6700   29.2840 C.ar    1  LIG1        0.0100
      7  C         23.7090    8.4430   29.9480 C.ar    1  LIG1        0.0380
      8  C         22.9300   11.2100   27.4670 C.3     1  LIG1        0.1490
      9  C         21.6190   11.9550   27.5580 C.2     1  LIG1        0.2630
     10  O         20.8960   12.0000   28.5440 O.2     1  LIG1       -0.2650
     11  O         21.3610   12.5790   26.3610 O.3     1  LIG1       -0.3120
     12  C         21.9520   12.0010   25.2160 C.3     1  LIG1        0.2810
     13  C         21.0430   10.9210   24.6650 C.2     1  LIG1        0.2430
     14  O         19.8220   11.0940   24.7090 O.2     1  LIG1       -0.2710
     15  N         21.6490    9.7860   24.1250 N.am    1  LIG1       -0.3590
     16  C         23.0890    9.5520   24.0420 C.3     1  LIG1        0.1520
     17  C         20.8170    8.7240   23.5750 C.3     1  LIG1        0.1520
     18  C         23.0330    5.1280   29.3290 C.2     1  LIG1        0.2980
     19  O         23.8620    5.0490   28.4350 O.2     1  LIG1       -0.2590
     20  C         22.0850    4.0340   29.6580 C.ar    1  LIG1        0.0400
     21  C         21.9850    2.9220   28.8220 C.ar    1  LIG1        0.0200
     22  C         21.0950    1.8940   29.1310 C.ar    1  LIG1        0.0330
     23  C         20.3030    1.9770   30.2760 C.ar    1  LIG1        0.0750
     24  C         20.4020    3.0890   31.1130 C.ar    1  LIG1        0.0330
     25  C         21.2920    4.1180   30.8040 C.ar    1  LIG1        0.0200
     26  N         19.4100    0.9460   30.5860 N.pl3   1  LIG1       -0.0660
     27  C         18.1420    1.0950   30.2890 C.cat   1  LIG1        0.6920
     28  N         17.5480    2.1830   29.6850 N.pl3   1  LIG1       -0.2330
     29  N         17.2320    0.1060   30.5770 N.pl3   1  LIG1       -0.2330
     30  H         18.0930    2.9610   29.4280 H       1  LIG1        0.1740
     31  H         16.5790    2.1810   29.5120 H       1  LIG1        0.1740
     32  H         17.5300   -0.7260   31.0100 H       1  LIG1        0.1740
     33  H         16.2820    0.2290   30.3480 H       1  LIG1        0.1740
@<TRIPOS>BOND
     1    17    15    1
     2    16    15    1
     3    15    13   am
     4    13    14    2
     5    13    12    1
     6    12    11    1
     7    11     9    1
     8     8     9    1
     9     8     5    1
    10     9    10    2
    11     4     5   ar
    12     4     3   ar
    13     5     6   ar
    14     3     2   ar
    15    19    18    2
    16    21    22   ar
    17    21    20   ar
    18    22    23   ar
    19     6     7   ar
    20    18    20    1
    21    18     1    1
    22    30    28    1
    23     2     7   ar
    24     2     1    1
    25    31    28    1
    26    20    25   ar
    27    28    27    1
    28    23    26    1
    29    23    24   ar
    30    27    29    1
    31    27    26    2
    32    33    29    1
    33    29    32    1
    34    25    24   ar
@<TRIPOS>MOLECULE
./../dock_file/temp/9500775f823359490cf1cd87815470de/Camostat_Ligand_CID_2536:hmTMPRSS11_D:20230418105132/Camostat_Ligand_CID_2536:hmTMPRSS11_D_out_4.pdbqt
 33 34 0 0 0
SMALL
GASTEIGER

@<TRIPOS>ATOM
      1  O         22.5210    1.8150   28.9560 O.3     1  LIG1       -0.2750
      2  C         21.2350    1.8430   29.4020 C.ar    1  LIG1        0.0790
      3  C         20.3020    2.6820   28.7920 C.ar    1  LIG1        0.0380
      4  C         18.9860    2.7110   29.2500 C.ar    1  LIG1        0.0100
      5  C         18.6000    1.8990   30.3170 C.ar    1  LIG1       -0.0490
      6  C         19.5330    1.0600   30.9270 C.ar    1  LIG1        0.0100
      7  C         20.8500    1.0320   30.4690 C.ar    1  LIG1        0.0380
      8  C         17.1770    1.9290   30.8110 C.3     1  LIG1        0.1490
      9  C         16.3990    0.6870   30.4450 C.2     1  LIG1        0.2630
     10  O         16.3840    0.1610   29.3410 O.2     1  LIG1       -0.2650
     11  O         15.7100    0.2350   31.5450 O.3     1  LIG1       -0.3120
     12  C         15.9040    0.9580   32.7430 C.3     1  LIG1        0.2810
     13  C         14.6200    0.9660   33.5460 C.2     1  LIG1        0.2430
     14  O         13.6660    0.2920   33.1480 O.2     1  LIG1       -0.2710
     15  N         14.5940    1.7390   34.7080 N.am    1  LIG1       -0.3590
     16  C         15.7050    2.5370   35.2190 C.3     1  LIG1        0.1520
     17  C         13.3830    1.7710   35.5180 C.3     1  LIG1        0.1520
     18  C         23.4580    2.2920   29.8750 C.2     1  LIG1        0.2980
     19  O         24.2060    1.6040   30.5520 O.2     1  LIG1       -0.2590
     20  C         23.4300    3.7750   29.9490 C.ar    1  LIG1        0.0400
     21  C         23.2510    4.4090   31.1780 C.ar    1  LIG1        0.0200
     22  C         23.2250    5.8020   31.2470 C.ar    1  LIG1        0.0330
     23  C         23.3770    6.5610   30.0860 C.ar    1  LIG1        0.0750
     24  C         23.5560    5.9270   28.8570 C.ar    1  LIG1        0.0330
     25  C         23.5820    4.5340   28.7880 C.ar    1  LIG1        0.0200
     26  N         23.3510    7.9580   30.1560 N.pl3   1  LIG1       -0.0660
     27  C         22.1980    8.5760   30.0540 C.cat   1  LIG1        0.6920
     28  N         20.9570    8.0040   29.8810 N.pl3   1  LIG1       -0.2330
     29  N         22.1290    9.9480   30.1180 N.pl3   1  LIG1       -0.2330
     30  H         20.8700    7.0260   29.8200 H       1  LIG1        0.1740
     31  H         20.1570    8.5750   29.8170 H       1  LIG1        0.1740
     32  H         22.9500   10.4770   30.2410 H       1  LIG1        0.1740
     33  H         21.2580   10.4000   30.0410 H       1  LIG1        0.1740
@<TRIPOS>BOND
     1    25    24   ar
     2    25    20   ar
     3     3     4   ar
     4     3     2   ar
     5    24    23   ar
     6     1     2    1
     7     1    18    1
     8     4     5   ar
     9    10     9    2
    10     2     7   ar
    11    31    28    1
    12    30    28    1
    13    18    20    1
    14    18    19    2
    15    28    27    1
    16    20    21   ar
    17    33    29    1
    18    27    29    1
    19    27    26    2
    20    23    26    1
    21    23    22   ar
    22    29    32    1
    23     5     8    1
    24     5     6   ar
    25     9     8    1
    26     9    11    1
    27     7     6   ar
    28    21    22   ar
    29    11    12    1
    30    12    13    1
    31    14    13    2
    32    13    15   am
    33    15    16    1
    34    15    17    1
@<TRIPOS>MOLECULE
./../dock_file/temp/9500775f823359490cf1cd87815470de/Camostat_Ligand_CID_2536:hmTMPRSS11_D:20230418105132/Camostat_Ligand_CID_2536:hmTMPRSS11_D_out_4.pdbqt
 33 34 0 0 0
SMALL
GASTEIGER

@<TRIPOS>ATOM
      1  O         22.8890    9.5620   30.3890 O.3     1  LIG1       -0.2750
      2  C         22.5080   10.1410   29.2180 C.ar    1  LIG1        0.0790
      3  C         21.8470   11.3700   29.2300 C.ar    1  LIG1        0.0380
      4  C         21.4570   11.9640   28.0310 C.ar    1  LIG1        0.0100
      5  C         21.7270   11.3300   26.8180 C.ar    1  LIG1       -0.0490
      6  C         22.3870   10.1010   26.8060 C.ar    1  LIG1        0.0100
      7  C         22.7780    9.5070   28.0060 C.ar    1  LIG1        0.0380
      8  C         21.3040   11.9710   25.5210 C.3     1  LIG1        0.1490
      9  C         21.7400   11.1850   24.3060 C.2     1  LIG1        0.2630
     10  O         21.1700   10.2010   23.8570 O.2     1  LIG1       -0.2650
     11  O         22.8780   11.7490   23.7790 O.3     1  LIG1       -0.3120
     12  C         23.9330   10.8600   23.4780 C.3     1  LIG1        0.2810
     13  C         25.1160   11.1510   24.3780 C.2     1  LIG1        0.2430
     14  O         24.9840   11.9800   25.2830 O.2     1  LIG1       -0.2710
     15  N         26.2960   10.4480   24.1340 N.am    1  LIG1       -0.3590
     16  C         26.4860    9.4490   23.0840 C.3     1  LIG1        0.1520
     17  C         27.4590   10.6870   24.9790 C.3     1  LIG1        0.1520
     18  C         23.6270    8.3860   30.2340 C.2     1  LIG1        0.2980
     19  O         24.8370    8.3190   30.0760 O.2     1  LIG1       -0.2590
     20  C         22.7450    7.1920   30.2670 C.ar    1  LIG1        0.0400
     21  C         22.9420    6.1540   29.3570 C.ar    1  LIG1        0.0200
     22  C         22.1130    5.0320   29.3900 C.ar    1  LIG1        0.0330
     23  C         21.0880    4.9480   30.3310 C.ar    1  LIG1        0.0750
     24  C         20.8910    5.9870   31.2420 C.ar    1  LIG1        0.0330
     25  C         21.7190    7.1090   31.2100 C.ar    1  LIG1        0.0200
     26  N         20.2570    3.8230   30.3630 N.pl3   1  LIG1       -0.0660
     27  C         19.1820    3.8080   29.6120 C.cat   1  LIG1        0.6920
     28  N         18.7450    4.7980   28.7590 N.pl3   1  LIG1       -0.2330
     29  N         18.3390    2.7210   29.6150 N.pl3   1  LIG1       -0.2330
     30  H         19.2610    5.6310   28.6670 H       1  LIG1        0.1740
     31  H         17.9150    4.6720   28.2430 H       1  LIG1        0.1740
     32  H         18.5400    1.9440   30.1830 H       1  LIG1        0.1740
     33  H         17.5350    2.7210   29.0460 H       1  LIG1        0.1740
@<TRIPOS>BOND
     1    16    15    1
     2    12    11    1
     3    12    13    1
     4    11     9    1
     5    10     9    2
     6    15    13   am
     7    15    17    1
     8     9     8    1
     9    13    14    2
    10     8     5    1
    11     6     5   ar
    12     6     7   ar
    13     5     4   ar
    14     7     2   ar
    15     4     3   ar
    16    31    28    1
    17    30    28    1
    18    28    27    1
    19    33    29    1
    20     2     3   ar
    21     2     1    1
    22    21    22   ar
    23    21    20   ar
    24    22    23   ar
    25    27    29    1
    26    27    26    2
    27    29    32    1
    28    19    18    2
    29    18    20    1
    30    18     1    1
    31    20    25   ar
    32    23    26    1
    33    23    24   ar
    34    25    24   ar
@<TRIPOS>MOLECULE
./../dock_file/temp/9500775f823359490cf1cd87815470de/Camostat_Ligand_CID_2536:hmTMPRSS11_D:20230418105132/Camostat_Ligand_CID_2536:hmTMPRSS11_D_out_4.pdbqt
 33 34 0 0 0
SMALL
GASTEIGER

@<TRIPOS>ATOM
      1  O         24.5620    7.5080   30.1540 O.3     1  LIG1       -0.2750
      2  C         23.8760    8.6480   29.8710 C.ar    1  LIG1        0.0790
      3  C         24.2810    9.8630   30.4260 C.ar    1  LIG1        0.0380
      4  C         23.5780   11.0310   30.1360 C.ar    1  LIG1        0.0100
      5  C         22.4700   10.9870   29.2890 C.ar    1  LIG1       -0.0490
      6  C         22.0650    9.7730   28.7340 C.ar    1  LIG1        0.0100
      7  C         22.7680    8.6040   29.0250 C.ar    1  LIG1        0.0380
      8  C         21.7100   12.2500   28.9750 C.3     1  LIG1        0.1490
      9  C         21.2690   12.3290   27.5330 C.2     1  LIG1        0.2630
     10  O         20.1200   12.1980   27.1350 O.2     1  LIG1       -0.2650
     11  O         22.3600   12.5710   26.7320 O.3     1  LIG1       -0.3120
     12  C         22.1090   12.6620   25.3450 C.3     1  LIG1        0.2810
     13  C         23.0200   11.7090   24.5990 C.2     1  LIG1        0.2430
     14  O         24.1960   12.0350   24.4150 O.2     1  LIG1       -0.2710
     15  N         22.4710   10.5010   24.1680 N.am    1  LIG1       -0.3590
     16  C         21.0900   10.0740   24.3800 C.3     1  LIG1        0.1520
     17  C         23.3100    9.5480   23.4530 C.3     1  LIG1        0.1520
     18  C         24.1990    6.9030   31.3600 C.2     1  LIG1        0.2980
     19  O         24.7160    7.1140   32.4470 O.2     1  LIG1       -0.2590
     20  C         23.0910    5.9350   31.1620 C.ar    1  LIG1        0.0400
     21  C         21.9690    5.9790   31.9880 C.ar    1  LIG1        0.0200
     22  C         20.9280    5.0700   31.8010 C.ar    1  LIG1        0.0330
     23  C         21.0090    4.1150   30.7880 C.ar    1  LIG1        0.0750
     24  C         22.1320    4.0700   29.9610 C.ar    1  LIG1        0.0330
     25  C         23.1730    4.9790   30.1480 C.ar    1  LIG1        0.0200
     26  N         19.9650    3.2030   30.6000 N.pl3   1  LIG1       -0.0660
     27  C         18.9700    3.5320   29.8120 C.cat   1  LIG1        0.6920
     28  N         18.8120    4.7100   29.1140 N.pl3   1  LIG1       -0.2330
     29  N         17.9250    2.6640   29.6010 N.pl3   1  LIG1       -0.2330
     30  H         19.4940    5.4160   29.1810 H       1  LIG1        0.1740
     31  H         18.0160    4.8440   28.5500 H       1  LIG1        0.1740
     32  H         17.9180    1.7850   30.0430 H       1  LIG1        0.1740
     33  H         17.1840    2.9220   29.0060 H       1  LIG1        0.1740
@<TRIPOS>BOND
     1    17    15    1
     2    15    16    1
     3    15    13   am
     4    14    13    2
     5    13    12    1
     6    12    11    1
     7    11     9    1
     8    10     9    2
     9     9     8    1
    10    31    28    1
    11     6     7   ar
    12     6     5   ar
    13     8     5    1
    14    33    29    1
    15     7     2   ar
    16    28    30    1
    17    28    27    1
    18     5     4   ar
    19    29    27    1
    20    29    32    1
    21    27    26    2
    22     2     1    1
    23     2     3   ar
    24    24    25   ar
    25    24    23   ar
    26     4     3   ar
    27    25    20   ar
    28     1    18    1
    29    26    23    1
    30    23    22   ar
    31    20    18    1
    32    20    21   ar
    33    18    19    2
    34    22    21   ar
@<TRIPOS>MOLECULE
./../dock_file/temp/9500775f823359490cf1cd87815470de/Camostat_Ligand_CID_2536:hmTMPRSS11_D:20230418105132/Camostat_Ligand_CID_2536:hmTMPRSS11_D_out_4.pdbqt
 33 34 0 0 0
SMALL
GASTEIGER

@<TRIPOS>ATOM
      1  O         22.9340    4.9160   30.0090 O.3     1  LIG1       -0.2750
      2  C         22.7990    6.2690   30.0580 C.ar    1  LIG1        0.0790
      3  C         21.5930    6.8650   29.6880 C.ar    1  LIG1        0.0380
      4  C         21.4560    8.2510   29.7380 C.ar    1  LIG1        0.0100
      5  C         22.5250    9.0440   30.1600 C.ar    1  LIG1       -0.0490
      6  C         23.7300    8.4480   30.5300 C.ar    1  LIG1        0.0100
      7  C         23.8680    7.0600   30.4790 C.ar    1  LIG1        0.0380
      8  C         22.3770   10.5420   30.2140 C.3     1  LIG1        0.1490
      9  C         22.0570   11.1520   28.8690 C.2     1  LIG1        0.2630
     10  O         20.9780   11.6300   28.5470 O.2     1  LIG1       -0.2650
     11  O         23.1660   11.0870   28.0600 O.3     1  LIG1       -0.3120
     12  C         23.0090   11.5750   26.7450 C.3     1  LIG1        0.2810
     13  C         22.5190   10.4600   25.8440 C.2     1  LIG1        0.2430
     14  O         23.0810    9.3630   25.8970 O.2     1  LIG1       -0.2710
     15  N         21.4410   10.7410   25.0030 N.am    1  LIG1       -0.3590
     16  C         20.7410   12.0210   24.9220 C.3     1  LIG1        0.1520
     17  C         20.9280    9.6980   24.1240 C.3     1  LIG1        0.1520
     18  C         22.3730    4.2430   31.0970 C.2     1  LIG1        0.2980
     19  O         22.7990    4.2600   32.2420 O.2     1  LIG1       -0.2590
     20  C         21.1740    3.4690   30.6880 C.ar    1  LIG1        0.0400
     21  C         21.2820    2.4790   29.7120 C.ar    1  LIG1        0.0200
     22  C         20.1550    1.7510   29.3280 C.ar    1  LIG1        0.0330
     23  C         18.9200    2.0150   29.9190 C.ar    1  LIG1        0.0750
     24  C         18.8110    3.0060   30.8950 C.ar    1  LIG1        0.0330
     25  C         19.9380    3.7330   31.2790 C.ar    1  LIG1        0.0200
     26  N         17.7900    1.2860   29.5340 N.pl3   1  LIG1       -0.0660
     27  C         17.4810    0.1980   30.1980 C.cat   1  LIG1        0.6920
     28  N         18.1540   -0.3440   31.2720 N.pl3   1  LIG1       -0.2330
     29  N         16.3790   -0.5470   29.8510 N.pl3   1  LIG1       -0.2330
     30  H         18.9630    0.0960   31.6190 H       1  LIG1        0.1740
     31  H         17.8240   -1.1720   31.6920 H       1  LIG1        0.1740
     32  H         15.8110   -0.2660   29.0980 H       1  LIG1        0.1740
     33  H         16.1570   -1.3620   30.3580 H       1  LIG1        0.1740
@<TRIPOS>BOND
     1    17    15    1
     2    16    15    1
     3    15    13   am
     4    13    14    2
     5    13    12    1
     6    12    11    1
     7    11     9    1
     8    10     9    2
     9     9     8    1
    10    32    29    1
    11    22    21   ar
    12    22    23   ar
    13    26    23    1
    14    26    27    2
    15     3     4   ar
    16     3     2   ar
    17    21    20   ar
    18     4     5   ar
    19    29    27    1
    20    29    33    1
    21    23    24   ar
    22     1     2    1
    23     1    18    1
    24     2     7   ar
    25     5     8    1
    26     5     6   ar
    27    27    28    1
    28     7     6   ar
    29    20    18    1
    30    20    25   ar
    31    24    25   ar
    32    18    19    2
    33    28    30    1
    34    28    31    1
@<TRIPOS>MOLECULE
./../dock_file/temp/9500775f823359490cf1cd87815470de/Camostat_Ligand_CID_2536:hmTMPRSS11_D:20230418105132/Camostat_Ligand_CID_2536:hmTMPRSS11_D_out_4.pdbqt
 33 34 0 0 0
SMALL
GASTEIGER

@<TRIPOS>ATOM
      1  O         23.5900    4.1500   30.4910 O.3     1  LIG1       -0.2750
      2  C         22.5920    3.2440   30.6770 C.ar    1  LIG1        0.0790
      3  C         22.0270    3.0770   31.9420 C.ar    1  LIG1        0.0380
      4  C         21.0040    2.1490   32.1320 C.ar    1  LIG1        0.0100
      5  C         20.5440    1.3880   31.0570 C.ar    1  LIG1       -0.0490
      6  C         21.1080    1.5550   29.7920 C.ar    1  LIG1        0.0100
      7  C         22.1320    2.4840   29.6020 C.ar    1  LIG1        0.0380
      8  C         19.4380    0.3850   31.2620 C.3     1  LIG1        0.1490
      9  C         18.1050    0.8620   30.7360 C.2     1  LIG1        0.2630
     10  O         17.6960    0.7040   29.5940 O.2     1  LIG1       -0.2650
     11  O         17.4170    1.5030   31.7390 O.3     1  LIG1       -0.3120
     12  C         16.7510    2.6940   31.3780 C.3     1  LIG1        0.2810
     13  C         17.2750    3.8440   32.2110 C.2     1  LIG1        0.2430
     14  O         16.8250    4.0070   33.3490 O.2     1  LIG1       -0.2710
     15  N         18.2550    4.6570   31.6400 N.am    1  LIG1       -0.3590
     16  C         18.8240    4.4880   30.3050 C.3     1  LIG1        0.1520
     17  C         18.7970    5.7720   32.4070 C.3     1  LIG1        0.1520
     18  C         23.5710    4.7790   29.2430 C.2     1  LIG1        0.2980
     19  O         23.9550    4.2890   28.1920 O.2     1  LIG1       -0.2590
     20  C         23.0280    6.1570   29.3470 C.ar    1  LIG1        0.0400
     21  C         23.7230    7.1270   30.0690 C.ar    1  LIG1        0.0200
     22  C         23.2130    8.4220   30.1660 C.ar    1  LIG1        0.0330
     23  C         22.0090    8.7470   29.5420 C.ar    1  LIG1        0.0750
     24  C         21.3140    7.7770   28.8200 C.ar    1  LIG1        0.0330
     25  C         21.8230    6.4820   28.7230 C.ar    1  LIG1        0.0200
     26  N         21.4980   10.0460   29.6400 N.pl3   1  LIG1       -0.0660
     27  C         21.8620   10.9380   28.7500 C.cat   1  LIG1        0.6920
     28  N         22.7190   10.7560   27.6870 N.pl3   1  LIG1       -0.2330
     29  N         21.3830   12.2260   28.8110 N.pl3   1  LIG1       -0.2330
     30  H         23.1320    9.8760   27.5330 H       1  LIG1        0.1740
     31  H         22.9190   11.5070   27.0820 H       1  LIG1        0.1740
     32  H         20.7590   12.4860   29.5260 H       1  LIG1        0.1740
     33  H         21.6630   12.8870   28.1370 H       1  LIG1        0.1740
@<TRIPOS>BOND
     1    31    28    1
     2    30    28    1
     3    28    27    1
     4    33    29    1
     5    19    18    2
     6    25    24   ar
     7    25    20   ar
     8    27    29    1
     9    27    26    2
    10    29    32    1
    11    24    23   ar
    12    18    20    1
    13    18     1    1
    14    20    21   ar
    15    23    26    1
    16    23    22   ar
    17    10     9    2
    18     7     6   ar
    19     7     2   ar
    20     6     5   ar
    21    21    22   ar
    22    16    15    1
    23     1     2    1
    24     2     3   ar
    25     9     8    1
    26     9    11    1
    27     5     8    1
    28     5     4   ar
    29    12    11    1
    30    12    13    1
    31    15    13   am
    32    15    17    1
    33     3     4   ar
    34    13    14    2
@<TRIPOS>MOLECULE
./../dock_file/temp/9500775f823359490cf1cd87815470de/Camostat_Ligand_CID_2536:hmTMPRSS11_D:20230418105132/Camostat_Ligand_CID_2536:hmTMPRSS11_D_out_4.pdbqt
 33 34 0 0 0
SMALL
GASTEIGER

@<TRIPOS>ATOM
      1  O         24.1710    7.7670   30.2590 O.3     1  LIG1       -0.2750
      2  C         23.6150    6.5250   30.2380 C.ar    1  LIG1        0.0790
      3  C         23.1390    5.9520   31.4180 C.ar    1  LIG1        0.0380
      4  C         22.5690    4.6800   31.3950 C.ar    1  LIG1        0.0100
      5  C         22.4740    3.9790   30.1930 C.ar    1  LIG1       -0.0490
      6  C         22.9500    4.5510   29.0130 C.ar    1  LIG1        0.0100
      7  C         23.5200    5.8250   29.0350 C.ar    1  LIG1        0.0380
      8  C         21.8580    2.6040   30.1680 C.3     1  LIG1        0.1490
      9  C         20.9880    2.3700   28.9560 C.2     1  LIG1        0.2630
     10  O         21.3490    1.8350   27.9170 O.2     1  LIG1       -0.2650
     11  O         19.7230    2.8500   29.1990 O.3     1  LIG1       -0.3120
     12  C         19.1470    2.4940   30.4380 C.3     1  LIG1        0.2810
     13  C         18.1910    1.3360   30.2400 C.2     1  LIG1        0.2430
     14  O         17.2190    1.4900   29.4950 O.2     1  LIG1       -0.2710
     15  N         18.4730    0.1480   30.9150 N.am    1  LIG1       -0.3590
     16  C         19.6190   -0.0760   31.7920 C.3     1  LIG1        0.1520
     17  C         17.5860   -0.9970   30.7500 C.3     1  LIG1        0.1520
     18  C         23.2450    8.8120   30.2180 C.2     1  LIG1        0.2980
     19  O         22.5440    9.1790   31.1490 O.2     1  LIG1       -0.2590
     20  C         23.1980    9.4340   28.8710 C.ar    1  LIG1        0.0400
     21  C         22.1690    9.1080   27.9880 C.ar    1  LIG1        0.0200
     22  C         22.1250    9.6930   26.7220 C.ar    1  LIG1        0.0330
     23  C         23.1110   10.6030   26.3390 C.ar    1  LIG1        0.0750
     24  C         24.1410   10.9290   27.2220 C.ar    1  LIG1        0.0330
     25  C         24.1850   10.3440   28.4880 C.ar    1  LIG1        0.0200
     26  N         23.0660   11.1890   25.0700 N.pl3   1  LIG1       -0.0660
     27  C         23.3660   10.4580   24.0230 C.cat   1  LIG1        0.6920
     28  N         23.7350    9.1300   24.0100 N.pl3   1  LIG1       -0.2330
     29  N         23.3350   10.9960   22.7580 N.pl3   1  LIG1       -0.2330
     30  H         23.7970    8.6280   24.8540 H       1  LIG1        0.1740
     31  H         23.9390    8.6850   23.1560 H       1  LIG1        0.1740
     32  H         23.0840   11.9390   22.6310 H       1  LIG1        0.1740
     33  H         23.5610   10.4370   21.9800 H       1  LIG1        0.1740
@<TRIPOS>BOND
     1    33    29    1
     2    32    29    1
     3    29    27    1
     4    31    28    1
     5    28    27    1
     6    28    30    1
     7    27    26    2
     8    26    23    1
     9    23    22   ar
    10    23    24   ar
    11    22    21   ar
    12    24    25   ar
    13    10     9    2
    14    21    20   ar
    15    25    20   ar
    16    20    18    1
    17     9    11    1
    18     9     8    1
    19     6     7   ar
    20     6     5   ar
    21     7     2   ar
    22    11    12    1
    23    14    13    2
    24     8     5    1
    25     5     4   ar
    26    18     1    1
    27    18    19    2
    28     2     1    1
    29     2     3   ar
    30    13    12    1
    31    13    15   am
    32    17    15    1
    33    15    16    1
    34     4     3   ar
@<TRIPOS>MOLECULE
./../dock_file/temp/9500775f823359490cf1cd87815470de/Camostat_Ligand_CID_2536:hmTMPRSS11_D:20230418105132/Camostat_Ligand_CID_2536:hmTMPRSS11_D_out_4.pdbqt
 33 34 0 0 0
SMALL
GASTEIGER

@<TRIPOS>ATOM
      1  O         23.0890    4.2260   30.0670 O.3     1  LIG1       -0.2750
      2  C         21.8730    3.6170   30.0360 C.ar    1  LIG1        0.0790
      3  C         20.8880    3.9760   30.9560 C.ar    1  LIG1        0.0380
      4  C         19.6420    3.3520   30.9230 C.ar    1  LIG1        0.0100
      5  C         19.3790    2.3680   29.9690 C.ar    1  LIG1       -0.0490
      6  C         20.3640    2.0090   29.0490 C.ar    1  LIG1        0.0100
      7  C         21.6110    2.6340   29.0820 C.ar    1  LIG1        0.0380
      8  C         18.0330    1.6930   29.9340 C.3     1  LIG1        0.1490
      9  C         17.2430    1.8850   31.2070 C.2     1  LIG1        0.2630
     10  O         16.5750    2.8710   31.4860 O.2     1  LIG1       -0.2650
     11  O         17.3890    0.7780   32.0090 O.3     1  LIG1       -0.3120
     12  C         16.8070    0.8560   33.2930 C.3     1  LIG1        0.2810
     13  C         15.9980   -0.3960   33.5620 C.2     1  LIG1        0.2430
     14  O         16.5210   -1.4960   33.3590 O.2     1  LIG1       -0.2710
     15  N         14.6970   -0.2310   34.0380 N.am    1  LIG1       -0.3590
     16  C         14.0490    1.0510   34.3050 C.3     1  LIG1        0.1520
     17  C         13.8830   -1.4060   34.3200 C.3     1  LIG1        0.1520
     18  C         23.3620    5.0240   28.9530 C.2     1  LIG1        0.2980
     19  O         23.9260    4.6550   27.9340 O.2     1  LIG1       -0.2590
     20  C         22.8880    6.4160   29.1620 C.ar    1  LIG1        0.0400
     21  C         23.5900    7.2710   30.0110 C.ar    1  LIG1        0.0200
     22  C         23.1450    8.5790   30.2060 C.ar    1  LIG1        0.0330
     23  C         21.9980    9.0300   29.5550 C.ar    1  LIG1        0.0750
     24  C         21.2950    8.1750   28.7060 C.ar    1  LIG1        0.0330
     25  C         21.7400    6.8670   28.5100 C.ar    1  LIG1        0.0200
     26  N         21.5520   10.3420   29.7510 N.pl3   1  LIG1       -0.0660
     27  C         21.9610   11.2800   28.9310 C.cat   1  LIG1        0.6920
     28  N         22.8090   11.1360   27.8550 N.pl3   1  LIG1       -0.2330
     29  N         21.5450   12.5810   29.0900 N.pl3   1  LIG1       -0.2330
     30  H         23.1780   10.2510   27.6340 H       1  LIG1        0.1740
     31  H         23.0470   11.9200   27.3080 H       1  LIG1        0.1740
     32  H         20.9350   12.8170   29.8240 H       1  LIG1        0.1740
     33  H         21.8590   13.2760   28.4670 H       1  LIG1        0.1740
@<TRIPOS>BOND
     1    31    28    1
     2    30    28    1
     3    28    27    1
     4    19    18    2
     5    33    29    1
     6    25    24   ar
     7    25    20   ar
     8    24    23   ar
     9    27    29    1
    10    27    26    2
    11    18    20    1
    12    18     1    1
    13     6     7   ar
    14     6     5   ar
    15     7     2   ar
    16    29    32    1
    17    20    21   ar
    18    23    26    1
    19    23    22   ar
    20     8     5    1
    21     8     9    1
    22     5     4   ar
    23    21    22   ar
    24     2     1    1
    25     2     3   ar
    26     4     3   ar
    27     9    10    2
    28     9    11    1
    29    11    12    1
    30    12    13    1
    31    14    13    2
    32    13    15   am
    33    15    16    1
    34    15    17    1
