@<TRIPOS>MOLECULE
./../dock_file/temp/9500775f823359490cf1cd87815470de/Camostat_Ligand_CID_2536:hmTMPRSS11_D:20230418105132/Camostat_Ligand_CID_2536:hmTMPRSS11_D_out_3.pdbqt
 33 34 0 0 0
SMALL
GASTEIGER

@<TRIPOS>ATOM
      1  O          0.3240  -10.0550    6.1240 O.3     1  LIG1       -0.2750
      2  C          1.5360   -9.6200    5.6840 C.ar    1  LIG1        0.0790
      3  C          1.7000   -9.2380    4.3520 C.ar    1  LIG1        0.0380
      4  C          2.9420   -8.7930    3.9020 C.ar    1  LIG1        0.0100
      5  C          4.0220   -8.7280    4.7840 C.ar    1  LIG1       -0.0490
      6  C          3.8580   -9.1100    6.1150 C.ar    1  LIG1        0.0100
      7  C          2.6150   -9.5560    6.5660 C.ar    1  LIG1        0.0380
      8  C          5.3640   -8.2470    4.2970 C.3     1  LIG1        0.1490
      9  C          6.4290   -9.3180    4.3510 C.2     1  LIG1        0.2630
     10  O          7.2450   -9.4620    5.2510 O.2     1  LIG1       -0.2650
     11  O          6.3400  -10.1110    3.2320 O.3     1  LIG1       -0.3120
     12  C          6.2770  -11.5040    3.4560 C.3     1  LIG1        0.2810
     13  C          4.8290  -11.9480    3.4950 C.2     1  LIG1        0.2430
     14  O          4.1490  -11.8420    2.4710 O.2     1  LIG1       -0.2710
     15  N          4.3480  -12.4660    4.6980 N.am    1  LIG1       -0.3590
     16  C          5.1260  -12.6220    5.9250 C.3     1  LIG1        0.1520
     17  C          2.9640  -12.9160    4.7810 C.3     1  LIG1        0.1520
     18  C         -0.6300   -9.0450    6.2700 C.2     1  LIG1        0.2980
     19  O         -1.4810   -8.7440    5.4460 O.2     1  LIG1       -0.2590
     20  C         -0.4770   -8.3470    7.5720 C.ar    1  LIG1        0.0400
     21  C         -0.5630   -9.0670    8.7630 C.ar    1  LIG1        0.0200
     22  C         -0.4180   -8.4120    9.9860 C.ar    1  LIG1        0.0330
     23  C         -0.1890   -7.0370   10.0180 C.ar    1  LIG1        0.0750
     24  C         -0.1040   -6.3160    8.8260 C.ar    1  LIG1        0.0330
     25  C         -0.2480   -6.9710    7.6030 C.ar    1  LIG1        0.0200
     26  N         -0.0440   -6.3800   11.2440 N.pl3   1  LIG1       -0.0660
     27  C          1.1620   -6.0900   11.6700 C.cat   1  LIG1        0.6920
     28  N          2.3570   -6.3610   11.0390 N.pl3   1  LIG1       -0.2330
     29  N          1.3470   -5.4450   12.8700 N.pl3   1  LIG1       -0.2330
     30  H          2.3610   -6.8220   10.1700 H       1  LIG1        0.1740
     31  H          3.2070   -6.0940   11.4600 H       1  LIG1        0.1740
     32  H          0.5700   -5.1940   13.4190 H       1  LIG1        0.1740
     33  H          2.2580   -5.2330   13.1780 H       1  LIG1        0.1740
@<TRIPOS>BOND
     1    14    13    2
     2    11    12    1
     3    11     9    1
     4    12    13    1
     5    13    15   am
     6     4     3   ar
     7     4     5   ar
     8     8     9    1
     9     8     5    1
    10     9    10    2
    11     3     2   ar
    12    15    17    1
    13    15    16    1
    14     5     6   ar
    15    19    18    2
    16     2     1    1
    17     2     7   ar
    18     6     7   ar
    19     1    18    1
    20    18    20    1
    21    20    25   ar
    22    20    21   ar
    23    25    24   ar
    24    21    22   ar
    25    24    23   ar
    26    22    23   ar
    27    23    26    1
    28    30    28    1
    29    28    31    1
    30    28    27    1
    31    26    27    2
    32    27    29    1
    33    29    33    1
    34    29    32    1
@<TRIPOS>MOLECULE
./../dock_file/temp/9500775f823359490cf1cd87815470de/Camostat_Ligand_CID_2536:hmTMPRSS11_D:20230418105132/Camostat_Ligand_CID_2536:hmTMPRSS11_D_out_3.pdbqt
 33 34 0 0 0
SMALL
GASTEIGER

@<TRIPOS>ATOM
      1  O          0.4320   -8.7490    5.3900 O.3     1  LIG1       -0.2750
      2  C          1.6160   -9.4200    5.3630 C.ar    1  LIG1        0.0790
      3  C          2.7530   -8.8540    5.9400 C.ar    1  LIG1        0.0380
      4  C          3.9650   -9.5420    5.9110 C.ar    1  LIG1        0.0100
      5  C          4.0420  -10.7970    5.3060 C.ar    1  LIG1       -0.0490
      6  C          2.9040  -11.3630    4.7290 C.ar    1  LIG1        0.0100
      7  C          1.6910  -10.6740    4.7580 C.ar    1  LIG1        0.0380
      8  C          5.3510  -11.5410    5.2750 C.3     1  LIG1        0.1490
      9  C          6.4580  -10.7560    4.6100 C.2     1  LIG1        0.2630
     10  O          7.3530  -10.1600    5.1930 O.2     1  LIG1       -0.2650
     11  O          6.3070  -10.8160    3.2450 O.3     1  LIG1       -0.3120
     12  C          6.5100   -9.6090    2.5410 C.3     1  LIG1        0.2810
     13  C          5.2670   -8.7490    2.6360 C.2     1  LIG1        0.2430
     14  O          5.3120   -7.7110    3.3000 O.2     1  LIG1       -0.2710
     15  N          4.1320   -9.1840    1.9500 N.am    1  LIG1       -0.3590
     16  C          4.0430  -10.3980    1.1410 C.3     1  LIG1        0.1520
     17  C          2.9130   -8.3860    2.0040 C.3     1  LIG1        0.1520
     18  C         -0.4850   -9.2390    6.3240 C.2     1  LIG1        0.2980
     19  O         -1.2940  -10.1320    6.1260 O.2     1  LIG1       -0.2590
     20  C         -0.3690   -8.5180    7.6170 C.ar    1  LIG1        0.0400
     21  C         -0.1780   -7.1370    7.6310 C.ar    1  LIG1        0.0200
     22  C         -0.0700   -6.4600    8.8450 C.ar    1  LIG1        0.0330
     23  C         -0.1540   -7.1630   10.0460 C.ar    1  LIG1        0.0750
     24  C         -0.3450   -8.5450   10.0330 C.ar    1  LIG1        0.0330
     25  C         -0.4530   -9.2220    8.8180 C.ar    1  LIG1        0.0200
     26  N         -0.0460   -6.4840   11.2650 N.pl3   1  LIG1       -0.0660
     27  C          1.1440   -6.1320   11.6910 C.cat   1  LIG1        0.6920
     28  N          2.3530   -6.3540   11.0680 N.pl3   1  LIG1       -0.2330
     29  N          1.2930   -5.4630   12.8830 N.pl3   1  LIG1       -0.2330
     30  H          2.3830   -6.8260   10.2050 H       1  LIG1        0.1740
     31  H          3.1870   -6.0420   11.4880 H       1  LIG1        0.1740
     32  H          0.5030   -5.2430   13.4260 H       1  LIG1        0.1740
     33  H          2.1910   -5.2040   13.1920 H       1  LIG1        0.1740
@<TRIPOS>BOND
     1    16    15    1
     2    15    17    1
     3    15    13   am
     4    12    13    1
     5    12    11    1
     6    13    14    2
     7    11     9    1
     8     9    10    2
     9     9     8    1
    10     6     7   ar
    11     6     5   ar
    12     7     2   ar
    13     8     5    1
    14     5     4   ar
    15     2     1    1
    16     2     3   ar
    17     1    18    1
    18     4     3   ar
    19    19    18    2
    20    18    20    1
    21    20    21   ar
    22    20    25   ar
    23    21    22   ar
    24    25    24   ar
    25    22    23   ar
    26    24    23   ar
    27    23    26    1
    28    30    28    1
    29    28    31    1
    30    28    27    1
    31    26    27    2
    32    27    29    1
    33    29    33    1
    34    29    32    1
@<TRIPOS>MOLECULE
./../dock_file/temp/9500775f823359490cf1cd87815470de/Camostat_Ligand_CID_2536:hmTMPRSS11_D:20230418105132/Camostat_Ligand_CID_2536:hmTMPRSS11_D_out_3.pdbqt
 33 34 0 0 0
SMALL
GASTEIGER

@<TRIPOS>ATOM
      1  O          0.3050   -8.5200    5.4560 O.3     1  LIG1       -0.2750
      2  C          1.5210   -9.1060    5.2870 C.ar    1  LIG1        0.0790
      3  C          2.6370   -8.6070    5.9610 C.ar    1  LIG1        0.0380
      4  C          3.8820   -9.2090    5.7880 C.ar    1  LIG1        0.0100
      5  C          4.0140  -10.3110    4.9420 C.ar    1  LIG1       -0.0490
      6  C          2.8990  -10.8100    4.2690 C.ar    1  LIG1        0.0100
      7  C          1.6520  -10.2080    4.4420 C.ar    1  LIG1        0.0380
      8  C          5.3600  -10.9610    4.7550 C.3     1  LIG1        0.1490
      9  C          6.4660   -9.9630    4.5010 C.2     1  LIG1        0.2630
     10  O          7.3570   -9.6770    5.2880 O.2     1  LIG1       -0.2650
     11  O          6.3180   -9.4250    3.2440 O.3     1  LIG1       -0.3120
     12  C          6.2470   -8.0170    3.1720 C.3     1  LIG1        0.2810
     13  C          7.4480   -7.4840    2.4190 C.2     1  LIG1        0.2430
     14  O          7.6710   -7.9080    1.2810 O.2     1  LIG1       -0.2710
     15  N          8.2360   -6.5270    3.0600 N.am    1  LIG1       -0.3590
     16  C          7.9960   -5.9910    4.3980 C.3     1  LIG1        0.1520
     17  C          9.3970   -5.9790    2.3710 C.3     1  LIG1        0.1520
     18  C         -0.4830   -9.1060    6.4490 C.2     1  LIG1        0.2980
     19  O         -1.1950  -10.0880    6.3070 O.2     1  LIG1       -0.2590
     20  C         -0.3660   -8.3670    7.7320 C.ar    1  LIG1        0.0400
     21  C         -0.2150   -6.9800    7.7260 C.ar    1  LIG1        0.0200
     22  C         -0.1050   -6.2860    8.9310 C.ar    1  LIG1        0.0330
     23  C         -0.1450   -6.9780   10.1410 C.ar    1  LIG1        0.0750
     24  C         -0.2960   -8.3650   10.1470 C.ar    1  LIG1        0.0330
     25  C         -0.4060   -9.0590    8.9420 C.ar    1  LIG1        0.0200
     26  N         -0.0350   -6.2820   11.3500 N.pl3   1  LIG1       -0.0660
     27  C          1.1600   -5.9910   11.8070 C.cat   1  LIG1        0.6920
     28  N          2.3720   -6.2950   11.2270 N.pl3   1  LIG1       -0.2330
     29  N          1.3110   -5.3080   12.9900 N.pl3   1  LIG1       -0.2330
     30  H          2.4010   -6.7850   10.3740 H       1  LIG1        0.1740
     31  H          3.2100   -6.0230   11.6680 H       1  LIG1        0.1740
     32  H          0.5190   -5.0310   13.5040 H       1  LIG1        0.1740
     33  H          2.2130   -5.0950   13.3230 H       1  LIG1        0.1740
@<TRIPOS>BOND
     1    14    13    2
     2    17    15    1
     3    13    15   am
     4    13    12    1
     5    15    16    1
     6    12    11    1
     7    11     9    1
     8     6     7   ar
     9     6     5   ar
    10     7     2   ar
    11     9     8    1
    12     9    10    2
    13     8     5    1
    14     5     4   ar
    15     2     1    1
    16     2     3   ar
    17     1    18    1
    18     4     3   ar
    19    19    18    2
    20    18    20    1
    21    21    20   ar
    22    21    22   ar
    23    20    25   ar
    24    22    23   ar
    25    25    24   ar
    26    23    24   ar
    27    23    26    1
    28    30    28    1
    29    28    31    1
    30    28    27    1
    31    26    27    2
    32    27    29    1
    33    29    33    1
    34    29    32    1
@<TRIPOS>MOLECULE
./../dock_file/temp/9500775f823359490cf1cd87815470de/Camostat_Ligand_CID_2536:hmTMPRSS11_D:20230418105132/Camostat_Ligand_CID_2536:hmTMPRSS11_D_out_3.pdbqt
 33 34 0 0 0
SMALL
GASTEIGER

@<TRIPOS>ATOM
      1  O          0.1950   -8.4180    5.3700 O.3     1  LIG1       -0.2750
      2  C          1.4470   -8.8070    5.0060 C.ar    1  LIG1        0.0790
      3  C          1.8920   -8.5960    3.7010 C.ar    1  LIG1        0.0380
      4  C          3.1740   -8.9950    3.3280 C.ar    1  LIG1        0.0100
      5  C          4.0140   -9.6050    4.2600 C.ar    1  LIG1       -0.0490
      6  C          3.5690   -9.8170    5.5650 C.ar    1  LIG1        0.0100
      7  C          2.2860   -9.4170    5.9380 C.ar    1  LIG1        0.0380
      8  C          5.4000  -10.0370    3.8570 C.3     1  LIG1        0.1490
      9  C          6.4870   -9.2520    4.5530 C.2     1  LIG1        0.2630
     10  O          6.5370   -8.0330    4.6380 O.2     1  LIG1       -0.2650
     11  O          7.4150  -10.1190    5.0790 O.3     1  LIG1       -0.3120
     12  C          7.2710  -11.4780    4.7240 C.3     1  LIG1        0.2810
     13  C          8.6270  -12.0640    4.3890 C.2     1  LIG1        0.2430
     14  O          9.6400  -11.4680    4.7650 O.2     1  LIG1       -0.2710
     15  N          8.6500  -13.2620    3.6750 N.am    1  LIG1       -0.3590
     16  C          7.4740  -14.0040    3.2260 C.3     1  LIG1        0.1520
     17  C          9.9310  -13.8690    3.3360 C.3     1  LIG1        0.1520
     18  C         -0.3620   -9.1710    6.4070 C.2     1  LIG1        0.2980
     19  O         -0.8710  -10.2750    6.2910 O.2     1  LIG1       -0.2590
     20  C         -0.2780   -8.4470    7.7000 C.ar    1  LIG1        0.0400
     21  C         -0.2890   -9.1580    8.8990 C.ar    1  LIG1        0.0200
     22  C         -0.2080   -8.4780   10.1150 C.ar    1  LIG1        0.0330
     23  C         -0.1180   -7.0870   10.1310 C.ar    1  LIG1        0.0750
     24  C         -0.1070   -6.3740    8.9310 C.ar    1  LIG1        0.0330
     25  C         -0.1870   -7.0550    7.7160 C.ar    1  LIG1        0.0200
     26  N         -0.0370   -6.4050   11.3500 N.pl3   1  LIG1       -0.0660
     27  C          1.1430   -6.0600   11.8060 C.cat   1  LIG1        0.6920
     28  N          2.3660   -6.2920   11.2160 N.pl3   1  LIG1       -0.2330
     29  N          1.2650   -5.3880   13.0000 N.pl3   1  LIG1       -0.2330
     30  H          2.4160   -6.7660   10.3560 H       1  LIG1        0.1740
     31  H          3.1910   -5.9840   11.6580 H       1  LIG1        0.1740
     32  H          0.4620   -5.1610   13.5210 H       1  LIG1        0.1740
     33  H          2.1570   -5.1340   13.3320 H       1  LIG1        0.1740
@<TRIPOS>BOND
     1    16    15    1
     2     4     3   ar
     3     4     5   ar
     4    17    15    1
     5    15    13   am
     6     3     2   ar
     7     8     5    1
     8     8     9    1
     9     5     6   ar
    10    13    12    1
    11    13    14    2
    12     9    10    2
    13     9    11    1
    14    12    11    1
    15     2     1    1
    16     2     7   ar
    17     1    18    1
    18     6     7   ar
    19    19    18    2
    20    18    20    1
    21    20    25   ar
    22    20    21   ar
    23    25    24   ar
    24    21    22   ar
    25    24    23   ar
    26    22    23   ar
    27    23    26    1
    28    30    28    1
    29    28    31    1
    30    28    27    1
    31    26    27    2
    32    27    29    1
    33    29    33    1
    34    29    32    1
@<TRIPOS>MOLECULE
./../dock_file/temp/9500775f823359490cf1cd87815470de/Camostat_Ligand_CID_2536:hmTMPRSS11_D:20230418105132/Camostat_Ligand_CID_2536:hmTMPRSS11_D_out_3.pdbqt
 33 34 0 0 0
SMALL
GASTEIGER

@<TRIPOS>ATOM
      1  O          0.2550   -9.3260    5.6340 O.3     1  LIG1       -0.2750
      2  C          1.4790   -9.9140    5.5560 C.ar    1  LIG1        0.0790
      3  C          1.6100  -11.1830    4.9910 C.ar    1  LIG1        0.0380
      4  C          2.8640  -11.7860    4.9110 C.ar    1  LIG1        0.0100
      5  C          3.9900  -11.1190    5.3960 C.ar    1  LIG1       -0.0490
      6  C          3.8600   -9.8510    5.9610 C.ar    1  LIG1        0.0100
      7  C          2.6050   -9.2480    6.0410 C.ar    1  LIG1        0.0380
      8  C          5.3470  -11.7700    5.3100 C.3     1  LIG1        0.1490
      9  C          5.3410  -13.2070    5.7760 C.2     1  LIG1        0.2630
     10  O          5.3420  -13.5740    6.9430 O.2     1  LIG1       -0.2650
     11  O          5.3330  -14.0440    4.6850 O.3     1  LIG1       -0.3120
     12  C          6.1230  -13.6430    3.5850 C.3     1  LIG1        0.2810
     13  C          7.3490  -14.5270    3.4900 C.2     1  LIG1        0.2430
     14  O          7.2060  -15.7050    3.1500 O.2     1  LIG1       -0.2710
     15  N          8.5830  -13.9480    3.7870 N.am    1  LIG1       -0.3590
     16  C          8.7940  -12.5560    4.1770 C.3     1  LIG1        0.1520
     17  C          9.7930  -14.7570    3.7000 C.3     1  LIG1        0.1520
     18  C         -0.5380   -9.7860    6.6880 C.2     1  LIG1        0.2980
     19  O         -1.2590  -10.7720    6.6590 O.2     1  LIG1       -0.2590
     20  C         -0.4140   -8.9050    7.8760 C.ar    1  LIG1        0.0400
     21  C         -0.4660   -9.4510    9.1580 C.ar    1  LIG1        0.0200
     22  C         -0.3490   -8.6230   10.2750 C.ar    1  LIG1        0.0330
     23  C         -0.1800   -7.2480   10.1090 C.ar    1  LIG1        0.0750
     24  C         -0.1280   -6.7010    8.8270 C.ar    1  LIG1        0.0330
     25  C         -0.2450   -7.5290    7.7100 C.ar    1  LIG1        0.0200
     26  N         -0.0620   -6.4180   11.2290 N.pl3   1  LIG1       -0.0660
     27  C          1.1340   -6.1310   11.6820 C.cat   1  LIG1        0.6920
     28  N          2.3430   -6.5600   11.1780 N.pl3   1  LIG1       -0.2330
     29  N          1.2930   -5.3190   12.7800 N.pl3   1  LIG1       -0.2330
     30  H          2.3660   -7.1500   10.3910 H       1  LIG1        0.1740
     31  H          3.1830   -6.2780   11.6070 H       1  LIG1        0.1740
     32  H          0.5040   -4.9450   13.2340 H       1  LIG1        0.1740
     33  H          2.1970   -5.1100   13.1110 H       1  LIG1        0.1740
@<TRIPOS>BOND
     1    14    13    2
     2    13    12    1
     3    13    15   am
     4    12    11    1
     5    17    15    1
     6    15    16    1
     7    11     9    1
     8     4     3   ar
     9     4     5   ar
    10     3     2   ar
    11     8     5    1
    12     8     9    1
    13     5     6   ar
    14     2     1    1
    15     2     7   ar
    16     1    18    1
    17     9    10    2
    18     6     7   ar
    19    19    18    2
    20    18    20    1
    21    25    20   ar
    22    25    24   ar
    23    20    21   ar
    24    24    23   ar
    25    21    22   ar
    26    23    22   ar
    27    23    26    1
    28    30    28    1
    29    28    31    1
    30    28    27    1
    31    26    27    2
    32    27    29    1
    33    29    33    1
    34    29    32    1
@<TRIPOS>MOLECULE
./../dock_file/temp/9500775f823359490cf1cd87815470de/Camostat_Ligand_CID_2536:hmTMPRSS11_D:20230418105132/Camostat_Ligand_CID_2536:hmTMPRSS11_D_out_3.pdbqt
 33 34 0 0 0
SMALL
GASTEIGER

@<TRIPOS>ATOM
      1  O          3.1590  -11.3220    4.7320 O.3     1  LIG1       -0.2750
      2  C          1.9320  -10.8010    5.0070 C.ar    1  LIG1        0.0790
      3  C          0.9190  -11.6230    5.5030 C.ar    1  LIG1        0.0380
      4  C         -0.3370  -11.0890    5.7850 C.ar    1  LIG1        0.0100
      5  C         -0.5820   -9.7310    5.5730 C.ar    1  LIG1       -0.0490
      6  C          0.4300   -8.9090    5.0780 C.ar    1  LIG1        0.0100
      7  C          1.6880   -9.4440    4.7950 C.ar    1  LIG1        0.0380
      8  C         -1.9400   -9.1540    5.8780 C.3     1  LIG1        0.1490
      9  C         -2.2170   -9.0500    7.3600 C.2     1  LIG1        0.2630
     10  O         -2.8030   -9.8880    8.0310 O.2     1  LIG1       -0.2650
     11  O         -1.7060   -7.8680    7.8410 O.3     1  LIG1       -0.3120
     12  C         -0.9010   -7.9600    8.9970 C.3     1  LIG1        0.2810
     13  C          0.0790   -6.8060    9.0280 C.2     1  LIG1        0.2430
     14  O         -0.3210   -5.6980    9.3990 O.2     1  LIG1       -0.2710
     15  N          1.3930   -7.0680    8.6400 N.am    1  LIG1       -0.3590
     16  C          1.9070   -8.3660    8.2110 C.3     1  LIG1        0.1520
     17  C          2.3740   -5.9900    8.6620 C.3     1  LIG1        0.1520
     18  C          3.6050  -11.0830    3.4300 C.2     1  LIG1        0.2980
     19  O          3.1300  -11.5660    2.4130 O.2     1  LIG1       -0.2590
     20  C          4.7680  -10.1590    3.4230 C.ar    1  LIG1        0.0400
     21  C          5.4720   -9.9160    4.6020 C.ar    1  LIG1        0.0200
     22  C          6.5640   -9.0490    4.5960 C.ar    1  LIG1        0.0330
     23  C          6.9530   -8.4240    3.4120 C.ar    1  LIG1        0.0750
     24  C          6.2490   -8.6670    2.2320 C.ar    1  LIG1        0.0330
     25  C          5.1560   -9.5340    2.2380 C.ar    1  LIG1        0.0200
     26  N          8.0490   -7.5550    3.4060 N.pl3   1  LIG1       -0.0660
     27  C          7.8310   -6.2610    3.4060 C.cat   1  LIG1        0.6920
     28  N          6.6110   -5.6200    3.4120 N.pl3   1  LIG1       -0.2330
     29  N          8.8810   -5.3730    3.4010 N.pl3   1  LIG1       -0.2330
     30  H          5.7790   -6.1450    3.4160 H       1  LIG1        0.1740
     31  H          6.5740   -4.6360    3.4110 H       1  LIG1        0.1740
     32  H          9.8070   -5.7050    3.3970 H       1  LIG1        0.1740
     33  H          8.7050   -4.4040    3.4020 H       1  LIG1        0.1740
@<TRIPOS>BOND
     1    24    25   ar
     2    24    23   ar
     3    25    20   ar
     4    19    18    2
     5    32    29    1
     6    29    33    1
     7    29    27    1
     8    27    26    2
     9    27    28    1
    10    26    23    1
    11    31    28    1
    12    28    30    1
    13    23    22   ar
    14    20    18    1
    15    20    21   ar
    16    18     1    1
    17    22    21   ar
    18     1     2    1
    19     7     2   ar
    20     7     6   ar
    21     2     3   ar
    22     6     5   ar
    23     3     4   ar
    24     5     4   ar
    25     5     8    1
    26     8     9    1
    27     9    11    1
    28     9    10    2
    29    11    12    1
    30    16    15    1
    31    15    17    1
    32    15    13   am
    33    12    13    1
    34    13    14    2
@<TRIPOS>MOLECULE
./../dock_file/temp/9500775f823359490cf1cd87815470de/Camostat_Ligand_CID_2536:hmTMPRSS11_D:20230418105132/Camostat_Ligand_CID_2536:hmTMPRSS11_D_out_3.pdbqt
 33 34 0 0 0
SMALL
GASTEIGER

@<TRIPOS>ATOM
      1  O          0.9850  -10.9260    5.0150 O.3     1  LIG1       -0.2750
      2  C          2.1540  -11.6170    5.1010 C.ar    1  LIG1        0.0790
      3  C          3.3110  -10.9800    5.5520 C.ar    1  LIG1        0.0380
      4  C          4.5080  -11.6880    5.6410 C.ar    1  LIG1        0.0100
      5  C          4.5500  -13.0360    5.2800 C.ar    1  LIG1       -0.0490
      6  C          3.3940  -13.6730    4.8300 C.ar    1  LIG1        0.0100
      7  C          2.1950  -12.9640    4.7410 C.ar    1  LIG1        0.0380
      8  C          5.8440  -13.8020    5.3760 C.3     1  LIG1        0.1490
      9  C          6.7910  -13.5040    4.2370 C.2     1  LIG1        0.2630
     10  O          6.6570  -13.8920    3.0850 O.2     1  LIG1       -0.2650
     11  O          7.8280  -12.7260    4.6940 O.3     1  LIG1       -0.3120
     12  C          8.2230  -11.6590    3.8580 C.3     1  LIG1        0.2810
     13  C          7.3840  -10.4360    4.1620 C.2     1  LIG1        0.2430
     14  O          7.5100   -9.8880    5.2610 O.2     1  LIG1       -0.2710
     15  N          6.5130   -9.9910    3.1670 N.am    1  LIG1       -0.3590
     16  C          6.3470  -10.6030    1.8510 C.3     1  LIG1        0.1520
     17  C          5.6900   -8.8130    3.4090 C.3     1  LIG1        0.1520
     18  C          1.1430   -9.5430    4.8980 C.2     1  LIG1        0.2980
     19  O          1.5680   -8.9550    3.9150 O.2     1  LIG1       -0.2590
     20  C          0.7360   -8.8500    6.1470 C.ar    1  LIG1        0.0400
     21  C         -0.6060   -8.8210    6.5230 C.ar    1  LIG1        0.0200
     22  C         -0.9880   -8.1710    7.6970 C.ar    1  LIG1        0.0330
     23  C         -0.0270   -7.5490    8.4940 C.ar    1  LIG1        0.0750
     24  C          1.3160   -7.5780    8.1180 C.ar    1  LIG1        0.0330
     25  C          1.6980   -8.2290    6.9440 C.ar    1  LIG1        0.0200
     26  N         -0.4090   -6.8970    9.6710 N.pl3   1  LIG1       -0.0660
     27  C         -0.4980   -7.5910   10.7800 C.cat   1  LIG1        0.6920
     28  N         -0.2520   -8.9380   10.9440 N.pl3   1  LIG1       -0.2330
     29  N         -0.8700   -6.9880   11.9580 N.pl3   1  LIG1       -0.2330
     30  H          0.0230   -9.4850   10.1740 H       1  LIG1        0.1740
     31  H         -0.3530   -9.3510   11.8320 H       1  LIG1        0.1740
     32  H         -1.0730   -6.0260   11.9760 H       1  LIG1        0.1740
     33  H         -0.9320   -7.5200   12.7850 H       1  LIG1        0.1740
@<TRIPOS>BOND
     1    16    15    1
     2    10     9    2
     3    15    17    1
     4    15    13   am
     5    12    13    1
     6    12    11    1
     7    19    18    2
     8    13    14    2
     9     9    11    1
    10     9     8    1
    11     7     6   ar
    12     7     2   ar
    13     6     5   ar
    14    18     1    1
    15    18    20    1
    16     1     2    1
    17     2     3   ar
    18     5     8    1
    19     5     4   ar
    20     3     4   ar
    21    20    21   ar
    22    20    25   ar
    23    21    22   ar
    24    25    24   ar
    25    22    23   ar
    26    24    23   ar
    27    23    26    1
    28    26    27    2
    29    30    28    1
    30    27    28    1
    31    27    29    1
    32    28    31    1
    33    29    32    1
    34    29    33    1
@<TRIPOS>MOLECULE
./../dock_file/temp/9500775f823359490cf1cd87815470de/Camostat_Ligand_CID_2536:hmTMPRSS11_D:20230418105132/Camostat_Ligand_CID_2536:hmTMPRSS11_D_out_3.pdbqt
 33 34 0 0 0
SMALL
GASTEIGER

@<TRIPOS>ATOM
      1  O          0.3520   -9.3750    5.6230 O.3     1  LIG1       -0.2750
      2  C          1.5530  -10.0100    5.5440 C.ar    1  LIG1        0.0790
      3  C          1.6230  -11.3130    5.0510 C.ar    1  LIG1        0.0380
      4  C          2.8540  -11.9630    4.9700 C.ar    1  LIG1        0.0100
      5  C          4.0160  -11.3100    5.3810 C.ar    1  LIG1       -0.0490
      6  C          3.9460  -10.0070    5.8750 C.ar    1  LIG1        0.0100
      7  C          2.7140   -9.3570    5.9560 C.ar    1  LIG1        0.0380
      8  C          5.3460  -12.0120    5.2940 C.3     1  LIG1        0.1490
      9  C          5.3270  -13.3900    5.9140 C.2     1  LIG1        0.2630
     10  O          5.3170  -13.6270    7.1140 O.2     1  LIG1       -0.2650
     11  O          5.3220  -14.3400    4.9200 O.3     1  LIG1       -0.3120
     12  C          5.8270  -15.6120    5.2700 C.3     1  LIG1        0.2810
     13  C          4.9620  -16.6900    4.6510 C.2     1  LIG1        0.2430
     14  O          5.2370  -17.0940    3.5180 O.2     1  LIG1       -0.2710
     15  N          3.8980  -17.1770    5.4120 N.am    1  LIG1       -0.3590
     16  C          3.5510  -16.7350    6.7610 C.3     1  LIG1        0.1520
     17  C          3.0440  -18.2210    4.8630 C.3     1  LIG1        0.1520
     18  C         -0.4580   -9.8070    6.6760 C.2     1  LIG1        0.2980
     19  O         -1.1870  -10.7880    6.6590 O.2     1  LIG1       -0.2590
     20  C         -0.3420   -8.9020    7.8470 C.ar    1  LIG1        0.0400
     21  C         -0.4590   -9.4140    9.1390 C.ar    1  LIG1        0.0200
     22  C         -0.3490   -8.5640   10.2390 C.ar    1  LIG1        0.0330
     23  C         -0.1230   -7.2010   10.0480 C.ar    1  LIG1        0.0750
     24  C         -0.0050   -6.6880    8.7560 C.ar    1  LIG1        0.0330
     25  C         -0.1150   -7.5390    7.6560 C.ar    1  LIG1        0.0200
     26  N         -0.0130   -6.3480   11.1510 N.pl3   1  LIG1       -0.0660
     27  C          1.1720   -6.1330   11.6700 C.cat   1  LIG1        0.6920
     28  N          2.3750   -6.6600   11.2520 N.pl3   1  LIG1       -0.2330
     29  N          1.3230   -5.3010   12.7550 N.pl3   1  LIG1       -0.2330
     30  H          2.4030   -7.2730   10.4830 H       1  LIG1        0.1740
     31  H          3.2060   -6.4240   11.7250 H       1  LIG1        0.1740
     32  H          0.5380   -4.8600   13.1500 H       1  LIG1        0.1740
     33  H          2.2190   -5.1470   13.1350 H       1  LIG1        0.1740
@<TRIPOS>BOND
     1    14    13    2
     2    13    12    1
     3    13    15   am
     4    17    15    1
     5    11    12    1
     6    11     9    1
     7     4     3   ar
     8     4     5   ar
     9     3     2   ar
    10     8     5    1
    11     8     9    1
    12     5     6   ar
    13    15    16    1
    14     2     1    1
    15     2     7   ar
    16     1    18    1
    17     6     7   ar
    18     9    10    2
    19    19    18    2
    20    18    20    1
    21    25    20   ar
    22    25    24   ar
    23    20    21   ar
    24    24    23   ar
    25    21    22   ar
    26    23    22   ar
    27    23    26    1
    28    30    28    1
    29    26    27    2
    30    28    27    1
    31    28    31    1
    32    27    29    1
    33    29    33    1
    34    29    32    1
@<TRIPOS>MOLECULE
./../dock_file/temp/9500775f823359490cf1cd87815470de/Camostat_Ligand_CID_2536:hmTMPRSS11_D:20230418105132/Camostat_Ligand_CID_2536:hmTMPRSS11_D_out_3.pdbqt
 33 34 0 0 0
SMALL
GASTEIGER

@<TRIPOS>ATOM
      1  O          1.6240  -10.3150    4.5330 O.3     1  LIG1       -0.2750
      2  C          2.9020  -10.7570    4.3830 C.ar    1  LIG1        0.0790
      3  C          3.5090  -10.7250    3.1270 C.ar    1  LIG1        0.0380
      4  C          4.8180  -11.1780    2.9730 C.ar    1  LIG1        0.0100
      5  C          5.5230  -11.6630    4.0760 C.ar    1  LIG1       -0.0490
      6  C          4.9160  -11.6950    5.3320 C.ar    1  LIG1        0.0100
      7  C          3.6060  -11.2420    5.4850 C.ar    1  LIG1        0.0380
      8  C          6.9380  -12.1530    3.9100 C.3     1  LIG1        0.1490
      9  C          7.9490  -11.2840    4.6220 C.2     1  LIG1        0.2630
     10  O          7.7760  -10.1190    4.9510 O.2     1  LIG1       -0.2650
     11  O          9.0980  -12.0060    4.8450 O.3     1  LIG1       -0.3120
     12  C         10.0780  -11.9490    3.8300 C.3     1  LIG1        0.2810
     13  C         11.4580  -11.9940    4.4510 C.2     1  LIG1        0.2430
     14  O         11.6300  -11.4650    5.5530 O.2     1  LIG1       -0.2710
     15  N         12.4640  -12.6460    3.7370 N.am    1  LIG1       -0.3590
     16  C         12.2960  -13.2960    2.4390 C.3     1  LIG1        0.1520
     17  C         13.8060  -12.7220    4.2980 C.3     1  LIG1        0.1520
     18  C          1.4890   -8.9250    4.5020 C.2     1  LIG1        0.2980
     19  O          1.6740   -8.2130    3.5270 O.2     1  LIG1       -0.2590
     20  C          1.1000   -8.3940    5.8330 C.ar    1  LIG1        0.0400
     21  C         -0.2440   -8.1660    6.1270 C.ar    1  LIG1        0.0200
     22  C         -0.6090   -7.6690    7.3780 C.ar    1  LIG1        0.0330
     23  C          0.3690   -7.3980    8.3350 C.ar    1  LIG1        0.0750
     24  C          1.7140   -7.6260    8.0410 C.ar    1  LIG1        0.0330
     25  C          2.0790   -8.1240    6.7900 C.ar    1  LIG1        0.0200
     26  N          0.0020   -6.8990    9.5890 N.pl3   1  LIG1       -0.0660
     27  C         -0.2990   -7.7460   10.5450 C.cat   1  LIG1        0.6920
     28  N         -0.3030   -9.1220   10.4700 N.pl3   1  LIG1       -0.2330
     29  N         -0.6650   -7.2960   11.7920 N.pl3   1  LIG1       -0.2330
     30  H         -0.0600   -9.5700    9.6290 H       1  LIG1        0.1740
     31  H         -0.5500   -9.6560   11.2600 H       1  LIG1        0.1740
     32  H         -0.7010   -6.3300   11.9750 H       1  LIG1        0.1740
     33  H         -0.8880   -7.9410   12.5010 H       1  LIG1        0.1740
@<TRIPOS>BOND
     1    16    15    1
     2     4     3   ar
     3     4     5   ar
     4     3     2   ar
     5    19    18    2
     6    15    17    1
     7    15    13   am
     8    12    13    1
     9    12    11    1
    10     8     5    1
    11     8     9    1
    12     5     6   ar
    13     2     1    1
    14     2     7   ar
    15    13    14    2
    16    18     1    1
    17    18    20    1
    18     9    11    1
    19     9    10    2
    20     6     7   ar
    21    20    21   ar
    22    20    25   ar
    23    21    22   ar
    24    25    24   ar
    25    22    23   ar
    26    24    23   ar
    27    23    26    1
    28    26    27    2
    29    30    28    1
    30    28    27    1
    31    28    31    1
    32    27    29    1
    33    29    32    1
    34    29    33    1
