@<TRIPOS>MOLECULE
./../dock_file/temp/9500775f823359490cf1cd87815470de/Camostat_Ligand_CID_2536:hmTMPRSS11_D:20230418105132/Camostat_Ligand_CID_2536:hmTMPRSS11_D_out_1.pdbqt
 33 34 0 0 0
SMALL
GASTEIGER

@<TRIPOS>ATOM
      1  O         -8.1360    3.3870   18.9370 O.3     1  LIG1       -0.2750
      2  C         -7.8590    2.2250   18.2860 C.ar    1  LIG1        0.0790
      3  C         -7.0770    1.2480   18.9040 C.ar    1  LIG1        0.0380
      4  C         -6.7930    0.0570   18.2370 C.ar    1  LIG1        0.0100
      5  C         -7.2920   -0.1590   16.9520 C.ar    1  LIG1       -0.0490
      6  C         -8.0740    0.8170   16.3340 C.ar    1  LIG1        0.0100
      7  C         -8.3580    2.0090   17.0020 C.ar    1  LIG1        0.0380
      8  C         -6.9860   -1.4460   16.2310 C.3     1  LIG1        0.1490
      9  C         -8.1080   -2.4550   16.3240 C.2     1  LIG1        0.2630
     10  O         -8.6500   -2.8190   17.3580 O.2     1  LIG1       -0.2650
     11  O         -8.4280   -2.9020   15.0640 O.3     1  LIG1       -0.3120
     12  C         -9.7830   -2.7800   14.6840 C.3     1  LIG1        0.2810
     13  C        -10.4550   -4.1350   14.7560 C.2     1  LIG1        0.2430
     14  O        -10.0330   -5.0460   14.0400 O.2     1  LIG1       -0.2710
     15  N        -11.5210   -4.2770   15.6460 N.am    1  LIG1       -0.3590
     16  C        -12.0400   -3.2270   16.5200 C.3     1  LIG1        0.1520
     17  C        -12.1950   -5.5640   15.7570 C.3     1  LIG1        0.1520
     18  C         -7.0100    4.0520   19.4300 C.2     1  LIG1        0.2980
     19  O         -6.5250    3.9040   20.5420 O.2     1  LIG1       -0.2590
     20  C         -6.4640    4.9990   18.4250 C.ar    1  LIG1        0.0400
     21  C         -7.3220    5.6380   17.5310 C.ar    1  LIG1        0.0200
     22  C         -6.8090    6.5270   16.5870 C.ar    1  LIG1        0.0330
     23  C         -5.4380    6.7780   16.5360 C.ar    1  LIG1        0.0750
     24  C         -4.5790    6.1390   17.4310 C.ar    1  LIG1        0.0330
     25  C         -5.0920    5.2490   18.3750 C.ar    1  LIG1        0.0200
     26  N         -4.9240    7.6700   15.5890 N.pl3   1  LIG1       -0.0660
     27  C         -4.5440    7.2070   14.4230 C.cat   1  LIG1        0.6920
     28  N         -4.5880    5.8990   13.9900 N.pl3   1  LIG1       -0.2330
     29  N         -4.0340    8.0500   13.4650 N.pl3   1  LIG1       -0.2330
     30  H         -4.9330    5.1950   14.5840 H       1  LIG1        0.1740
     31  H         -4.2710    5.6700   13.0850 H       1  LIG1        0.1740
     32  H         -3.9500    9.0130   13.6500 H       1  LIG1        0.1740
     33  H         -3.7520    7.6910   12.5920 H       1  LIG1        0.1740
@<TRIPOS>BOND
     1    33    29    1
     2    31    28    1
     3    29    32    1
     4    29    27    1
     5    28    27    1
     6    28    30    1
     7    14    13    2
     8    27    26    2
     9    12    13    1
    10    12    11    1
    11    13    15   am
    12    11     9    1
    13    26    23    1
    14    15    17    1
    15    15    16    1
    16     8     9    1
    17     8     5    1
    18     9    10    2
    19     6     5   ar
    20     6     7   ar
    21    23    22   ar
    22    23    24   ar
    23    22    21   ar
    24     5     4   ar
    25     7     2   ar
    26    24    25   ar
    27    21    20   ar
    28     4     3   ar
    29     2     3   ar
    30     2     1    1
    31    25    20   ar
    32    20    18    1
    33     1    18    1
    34    18    19    2
@<TRIPOS>MOLECULE
./../dock_file/temp/9500775f823359490cf1cd87815470de/Camostat_Ligand_CID_2536:hmTMPRSS11_D:20230418105132/Camostat_Ligand_CID_2536:hmTMPRSS11_D_out_1.pdbqt
 33 34 0 0 0
SMALL
GASTEIGER

@<TRIPOS>ATOM
      1  O         -8.1400    3.3350   18.9320 O.3     1  LIG1       -0.2750
      2  C         -7.8970    2.1590   18.2930 C.ar    1  LIG1        0.0790
      3  C         -8.5010    1.8950   17.0630 C.ar    1  LIG1        0.0380
      4  C         -8.2510    0.6890   16.4090 C.ar    1  LIG1        0.0100
      5  C         -7.3970   -0.2530   16.9830 C.ar    1  LIG1       -0.0490
      6  C         -6.7940    0.0110   18.2130 C.ar    1  LIG1        0.0100
      7  C         -7.0440    1.2170   18.8680 C.ar    1  LIG1        0.0380
      8  C         -7.1270   -1.5560   16.2760 C.3     1  LIG1        0.1490
      9  C         -8.2430   -2.5600   16.4460 C.2     1  LIG1        0.2630
     10  O         -8.7830   -2.8470   17.5050 O.2     1  LIG1       -0.2650
     11  O         -8.5600   -3.1050   15.2240 O.3     1  LIG1       -0.3120
     12  C         -9.9260   -3.0890   14.8690 C.3     1  LIG1        0.2810
     13  C        -10.3210   -1.6950   14.4280 C.2     1  LIG1        0.2430
     14  O         -9.8080   -1.2270   13.4080 O.2     1  LIG1       -0.2710
     15  N        -11.2610   -1.0170   15.2060 N.am    1  LIG1       -0.3590
     16  C        -11.9010   -1.5430   16.4100 C.3     1  LIG1        0.1520
     17  C        -11.6790    0.3240   14.8180 C.3     1  LIG1        0.1520
     18  C         -6.9940    3.9870   19.3930 C.2     1  LIG1        0.2980
     19  O         -6.4730    3.8250   20.4870 O.2     1  LIG1       -0.2590
     20  C         -6.4740    4.9380   18.3790 C.ar    1  LIG1        0.0400
     21  C         -5.1160    5.2540   18.3490 C.ar    1  LIG1        0.0200
     22  C         -4.6280    6.1470   17.3960 C.ar    1  LIG1        0.0330
     23  C         -5.4980    6.7260   16.4720 C.ar    1  LIG1        0.0750
     24  C         -6.8570    6.4110   16.5010 C.ar    1  LIG1        0.0330
     25  C         -7.3450    5.5170   17.4550 C.ar    1  LIG1        0.0200
     26  N         -5.0080    7.6220   15.5160 N.pl3   1  LIG1       -0.0660
     27  C         -4.6000    7.1550   14.3600 C.cat   1  LIG1        0.6920
     28  N         -4.5910    5.8410   13.9470 N.pl3   1  LIG1       -0.2330
     29  N         -4.1120    8.0030   13.3930 N.pl3   1  LIG1       -0.2330
     30  H         -4.9150    5.1330   14.5490 H       1  LIG1        0.1740
     31  H         -4.2570    5.6090   13.0500 H       1  LIG1        0.1740
     32  H         -4.0670    8.9710   13.5650 H       1  LIG1        0.1740
     33  H         -3.8100    7.6400   12.5290 H       1  LIG1        0.1740
@<TRIPOS>BOND
     1    33    29    1
     2    31    28    1
     3    29    32    1
     4    29    27    1
     5    14    13    2
     6    28    27    1
     7    28    30    1
     8    27    26    2
     9    13    12    1
    10    13    15   am
    11    17    15    1
    12    12    11    1
    13    15    16    1
    14    11     9    1
    15    26    23    1
    16     8     9    1
    17     8     5    1
    18     4     5   ar
    19     4     3   ar
    20     9    10    2
    21    23    24   ar
    22    23    22   ar
    23    24    25   ar
    24     5     6   ar
    25     3     2   ar
    26    22    21   ar
    27    25    20   ar
    28     6     7   ar
    29     2     7   ar
    30     2     1    1
    31    21    20   ar
    32    20    18    1
    33     1    18    1
    34    18    19    2
@<TRIPOS>MOLECULE
./../dock_file/temp/9500775f823359490cf1cd87815470de/Camostat_Ligand_CID_2536:hmTMPRSS11_D:20230418105132/Camostat_Ligand_CID_2536:hmTMPRSS11_D_out_1.pdbqt
 33 34 0 0 0
SMALL
GASTEIGER

@<TRIPOS>ATOM
      1  O         -7.8980    5.8200   18.0320 O.3     1  LIG1       -0.2750
      2  C         -6.7520    5.5880   17.3340 C.ar    1  LIG1        0.0790
      3  C         -5.5130    5.7340   17.9580 C.ar    1  LIG1        0.0380
      4  C         -4.3400    5.4970   17.2430 C.ar    1  LIG1        0.0100
      5  C         -4.4050    5.1130   15.9030 C.ar    1  LIG1       -0.0490
      6  C         -5.6440    4.9670   15.2790 C.ar    1  LIG1        0.0100
      7  C         -6.8180    5.2050   15.9950 C.ar    1  LIG1        0.0380
      8  C         -3.1370    4.8560   15.1310 C.3     1  LIG1        0.1490
      9  C         -3.3780    4.6650   13.6510 C.2     1  LIG1        0.2630
     10  O         -3.7170    3.6180   13.1180 O.2     1  LIG1       -0.2650
     11  O         -3.1570    5.8520   12.9930 O.3     1  LIG1       -0.3120
     12  C         -2.8430    5.7550   11.6200 C.3     1  LIG1        0.2810
     13  C         -2.2030    7.0460   11.1520 C.2     1  LIG1        0.2430
     14  O         -0.9820    7.1790   11.2680 O.2     1  LIG1       -0.2710
     15  N         -3.0420    8.0160   10.6020 N.am    1  LIG1       -0.3590
     16  C         -4.4880    7.8890   10.4340 C.3     1  LIG1        0.1520
     17  C         -2.4720    9.2710   10.1290 C.3     1  LIG1        0.1520
     18  C         -8.1020    4.9500   19.1060 C.2     1  LIG1        0.2980
     19  O         -8.3090    5.2840   20.2630 O.2     1  LIG1       -0.2590
     20  C         -8.0200    3.5330   18.6710 C.ar    1  LIG1        0.0400
     21  C         -8.8720    3.0600   17.6740 C.ar    1  LIG1        0.0200
     22  C         -8.7950    1.7280   17.2640 C.ar    1  LIG1        0.0330
     23  C         -7.8660    0.8700   17.8530 C.ar    1  LIG1        0.0750
     24  C         -7.0130    1.3430   18.8500 C.ar    1  LIG1        0.0330
     25  C         -7.0910    2.6750   19.2600 C.ar    1  LIG1        0.0200
     26  N         -7.7890   -0.4650   17.4420 N.pl3   1  LIG1       -0.0660
     27  C         -7.1640   -0.7490   16.3250 C.cat   1  LIG1        0.6920
     28  N         -6.5470    0.1340   15.4660 N.pl3   1  LIG1       -0.2330
     29  N         -7.0650   -2.0490   15.8870 N.pl3   1  LIG1       -0.2330
     30  H         -6.5470    1.0970   15.6660 H       1  LIG1        0.1740
     31  H         -6.1070   -0.2000   14.6500 H       1  LIG1        0.1740
     32  H         -7.4650   -2.7780   16.4130 H       1  LIG1        0.1740
     33  H         -6.5930   -2.2500   15.0460 H       1  LIG1        0.1740
@<TRIPOS>BOND
     1    17    15    1
     2    16    15    1
     3    15    13   am
     4    13    14    2
     5    13    12    1
     6    12    11    1
     7    11     9    1
     8    10     9    2
     9     9     8    1
    10    31    28    1
    11    33    29    1
    12     8     5    1
    13     6     5   ar
    14     6     7   ar
    15    28    30    1
    16    28    27    1
    17    29    27    1
    18    29    32    1
    19     5     4   ar
    20     7     2   ar
    21    27    26    2
    22     4     3   ar
    23    22    21   ar
    24    22    23   ar
    25     2     3   ar
    26     2     1    1
    27    26    23    1
    28    21    20   ar
    29    23    24   ar
    30     1    18    1
    31    20    18    1
    32    20    25   ar
    33    24    25   ar
    34    18    19    2
@<TRIPOS>MOLECULE
./../dock_file/temp/9500775f823359490cf1cd87815470de/Camostat_Ligand_CID_2536:hmTMPRSS11_D:20230418105132/Camostat_Ligand_CID_2536:hmTMPRSS11_D_out_1.pdbqt
 33 34 0 0 0
SMALL
GASTEIGER

@<TRIPOS>ATOM
      1  O         -8.0500    5.8570   17.8710 O.3     1  LIG1       -0.2750
      2  C         -7.8000    4.5340   18.0640 C.ar    1  LIG1        0.0790
      3  C         -8.2830    3.5910   17.1570 C.ar    1  LIG1        0.0380
      4  C         -8.0260    2.2360   17.3550 C.ar    1  LIG1        0.0100
      5  C         -7.2840    1.8210   18.4620 C.ar    1  LIG1       -0.0490
      6  C         -6.8010    2.7630   19.3690 C.ar    1  LIG1        0.0100
      7  C         -7.0580    4.1200   19.1710 C.ar    1  LIG1        0.0380
      8  C         -7.0060    0.3560   18.6760 C.3     1  LIG1        0.1490
      9  C         -7.0100   -0.4390   17.3920 C.2     1  LIG1        0.2630
     10  O         -6.1980   -0.3230   16.4840 O.2     1  LIG1       -0.2650
     11  O         -8.0680   -1.3180   17.3990 O.3     1  LIG1       -0.3120
     12  C         -8.6760   -1.5720   16.1500 C.3     1  LIG1        0.2810
     13  C         -9.7800   -0.5650   15.9070 C.2     1  LIG1        0.2430
     14  O        -10.7410   -0.5390   16.6810 O.2     1  LIG1       -0.2710
     15  N         -9.6400    0.2910   14.8140 N.am    1  LIG1       -0.3590
     16  C         -8.5120    0.3020   13.8850 C.3     1  LIG1        0.1520
     17  C        -10.6730    1.2830   14.5450 C.3     1  LIG1        0.1520
     18  C         -6.9060    6.6540   17.7980 C.2     1  LIG1        0.2980
     19  O         -6.5930    7.5270   18.5940 O.2     1  LIG1       -0.2590
     20  C         -6.0960    6.3210   16.5980 C.ar    1  LIG1        0.0400
     21  C         -6.5370    6.7040   15.3320 C.ar    1  LIG1        0.0200
     22  C         -5.7760    6.3920   14.2050 C.ar    1  LIG1        0.0330
     23  C         -4.5760    5.6950   14.3450 C.ar    1  LIG1        0.0750
     24  C         -4.1350    5.3110   15.6110 C.ar    1  LIG1        0.0330
     25  C         -4.8960    5.6240   16.7380 C.ar    1  LIG1        0.0200
     26  N         -3.8140    5.3810   13.2140 N.pl3   1  LIG1       -0.0660
     27  C         -2.8990    6.2300   12.8110 C.cat   1  LIG1        0.6920
     28  N         -2.5780    7.4440   13.3800 N.pl3   1  LIG1       -0.2330
     29  N         -2.1280    5.9600   11.7050 N.pl3   1  LIG1       -0.2330
     30  H         -3.0590    7.7550   14.1800 H       1  LIG1        0.1740
     31  H         -1.8680    8.0000   12.9850 H       1  LIG1        0.1740
     32  H         -2.2590    5.1210   11.2070 H       1  LIG1        0.1740
     33  H         -1.4450    6.6050   11.4120 H       1  LIG1        0.1740
@<TRIPOS>BOND
     1    32    29    1
     2    33    29    1
     3    29    27    1
     4    27    26    2
     5    27    28    1
     6    31    28    1
     7    26    23    1
     8    28    30    1
     9    16    15    1
    10    22    23   ar
    11    22    21   ar
    12    23    24   ar
    13    17    15    1
    14    15    13   am
    15    21    20   ar
    16    24    25   ar
    17    13    12    1
    18    13    14    2
    19    12    11    1
    20    10     9    2
    21    20    25   ar
    22    20    18    1
    23     3     4   ar
    24     3     2   ar
    25     4     5   ar
    26     9    11    1
    27     9     8    1
    28    18     1    1
    29    18    19    2
    30     1     2    1
    31     2     7   ar
    32     5     8    1
    33     5     6   ar
    34     7     6   ar
@<TRIPOS>MOLECULE
./../dock_file/temp/9500775f823359490cf1cd87815470de/Camostat_Ligand_CID_2536:hmTMPRSS11_D:20230418105132/Camostat_Ligand_CID_2536:hmTMPRSS11_D_out_1.pdbqt
 33 34 0 0 0
SMALL
GASTEIGER

@<TRIPOS>ATOM
      1  O         -8.1250    3.3550   18.8920 O.3     1  LIG1       -0.2750
      2  C         -7.7500    2.2710   18.1590 C.ar    1  LIG1        0.0790
      3  C         -7.2950    1.1180   18.8000 C.ar    1  LIG1        0.0380
      4  C         -6.9110    0.0080   18.0500 C.ar    1  LIG1        0.0100
      5  C         -6.9830    0.0490   16.6570 C.ar    1  LIG1       -0.0490
      6  C         -7.4370    1.2020   16.0160 C.ar    1  LIG1        0.0100
      7  C         -7.8210    2.3130   16.7670 C.ar    1  LIG1        0.0380
      8  C         -6.5680   -1.1510   15.8450 C.3     1  LIG1        0.1490
      9  C         -7.4310   -1.3630   14.6240 C.2     1  LIG1        0.2630
     10  O         -8.6230   -1.6370   14.6380 O.2     1  LIG1       -0.2650
     11  O         -6.6710   -1.2000   13.4900 O.3     1  LIG1       -0.3120
     12  C         -7.2540   -0.4420   12.4510 C.3     1  LIG1        0.2810
     13  C         -6.2960    0.6470   12.0160 C.2     1  LIG1        0.2430
     14  O         -6.0090    1.5410   12.8180 O.2     1  LIG1       -0.2710
     15  N         -5.7810    0.5700   10.7220 N.am    1  LIG1       -0.3590
     16  C         -6.0850   -0.4780    9.7500 C.3     1  LIG1        0.1520
     17  C         -4.8490    1.5910   10.2600 C.3     1  LIG1        0.1520
     18  C         -7.0610    4.0670   19.4510 C.2     1  LIG1        0.2980
     19  O         -6.6220    3.9210   20.5820 O.2     1  LIG1       -0.2590
     20  C         -6.5190    5.0620   18.4910 C.ar    1  LIG1        0.0400
     21  C         -7.3870    5.8100   17.6980 C.ar    1  LIG1        0.0200
     22  C         -6.8780    6.7450   16.7960 C.ar    1  LIG1        0.0330
     23  C         -5.5000    6.9310   16.6880 C.ar    1  LIG1        0.0750
     24  C         -4.6300    6.1820   17.4820 C.ar    1  LIG1        0.0330
     25  C         -5.1400    5.2470   18.3830 C.ar    1  LIG1        0.0200
     26  N         -4.9890    7.8680   15.7840 N.pl3   1  LIG1       -0.0660
     27  C         -4.6990    7.4810   14.5660 C.cat   1  LIG1        0.6920
     28  N         -4.8370    6.2160   14.0370 N.pl3   1  LIG1       -0.2330
     29  N         -4.1950    8.3710   13.6470 N.pl3   1  LIG1       -0.2330
     30  H         -5.1880    5.4850   14.5940 H       1  LIG1        0.1740
     31  H         -4.5830    6.0430   13.1010 H       1  LIG1        0.1740
     32  H         -4.0490    9.3110   13.9000 H       1  LIG1        0.1740
     33  H         -3.9810    8.0680   12.7350 H       1  LIG1        0.1740
@<TRIPOS>BOND
     1    16    15    1
     2    17    15    1
     3    15    13   am
     4    13    12    1
     5    13    14    2
     6    12    11    1
     7    33    29    1
     8    31    28    1
     9    11     9    1
    10    29    32    1
    11    29    27    1
    12    28    27    1
    13    28    30    1
    14    27    26    2
    15     9    10    2
    16     9     8    1
    17    26    23    1
    18     8     5    1
    19     6     5   ar
    20     6     7   ar
    21     5     4   ar
    22    23    22   ar
    23    23    24   ar
    24     7     2   ar
    25    22    21   ar
    26    24    25   ar
    27    21    20   ar
    28     4     3   ar
    29     2     3   ar
    30     2     1    1
    31    25    20   ar
    32    20    18    1
    33     1    18    1
    34    18    19    2
@<TRIPOS>MOLECULE
./../dock_file/temp/9500775f823359490cf1cd87815470de/Camostat_Ligand_CID_2536:hmTMPRSS11_D:20230418105132/Camostat_Ligand_CID_2536:hmTMPRSS11_D_out_1.pdbqt
 33 34 0 0 0
SMALL
GASTEIGER

@<TRIPOS>ATOM
      1  O         -5.8260    4.7940   19.4580 O.3     1  LIG1       -0.2750
      2  C         -5.6070    5.4400   18.2800 C.ar    1  LIG1        0.0790
      3  C         -6.5470    6.3520   17.7990 C.ar    1  LIG1        0.0380
      4  C         -6.3220    7.0140   16.5930 C.ar    1  LIG1        0.0100
      5  C         -5.1570    6.7650   15.8660 C.ar    1  LIG1       -0.0490
      6  C         -4.2180    5.8530   16.3470 C.ar    1  LIG1        0.0100
      7  C         -4.4420    5.1910   17.5550 C.ar    1  LIG1        0.0380
      8  C         -4.9140    7.4800   14.5620 C.3     1  LIG1        0.1490
      9  C         -4.0630    6.6820   13.6030 C.2     1  LIG1        0.2630
     10  O         -2.9140    6.9520   13.2830 O.2     1  LIG1       -0.2650
     11  O         -4.7770    5.6010   13.1440 O.3     1  LIG1       -0.3120
     12  C         -4.0390    4.4230   12.8990 C.3     1  LIG1        0.2810
     13  C         -4.5270    3.7730   11.6200 C.2     1  LIG1        0.2430
     14  O         -4.2990    4.3350   10.5450 O.2     1  LIG1       -0.2710
     15  N         -5.2050    2.5590   11.7350 N.am    1  LIG1       -0.3590
     16  C         -5.4800    1.8570   12.9860 C.3     1  LIG1        0.1520
     17  C         -5.6860    1.8920   10.5320 C.3     1  LIG1        0.1520
     18  C         -7.1430    4.3670   19.6430 C.2     1  LIG1        0.2980
     19  O         -8.0100    4.9740   20.2530 O.2     1  LIG1       -0.2590
     20  C         -7.3700    3.0440   19.0090 C.ar    1  LIG1        0.0400
     21  C         -8.2820    2.9210   17.9610 C.ar    1  LIG1        0.0200
     22  C         -8.4950    1.6780   17.3640 C.ar    1  LIG1        0.0330
     23  C         -7.7980    0.5580   17.8160 C.ar    1  LIG1        0.0750
     24  C         -6.8850    0.6810   18.8650 C.ar    1  LIG1        0.0330
     25  C         -6.6720    1.9230   19.4610 C.ar    1  LIG1        0.0200
     26  N         -8.0120   -0.6890   17.2180 N.pl3   1  LIG1       -0.0660
     27  C         -7.1760   -1.1010   16.2950 C.cat   1  LIG1        0.6920
     28  N         -6.0670   -0.4370   15.8170 N.pl3   1  LIG1       -0.2330
     29  N         -7.3510   -2.3190   15.6830 N.pl3   1  LIG1       -0.2330
     30  H         -5.8310    0.4490   16.1750 H       1  LIG1        0.1740
     31  H         -5.5110   -0.8500   15.1170 H       1  LIG1        0.1740
     32  H         -8.1090   -2.8930   15.9370 H       1  LIG1        0.1740
     33  H         -6.7160   -2.6180   14.9920 H       1  LIG1        0.1740
@<TRIPOS>BOND
     1    17    15    1
     2    14    13    2
     3    13    15   am
     4    13    12    1
     5    15    16    1
     6    12    11    1
     7    11     9    1
     8    10     9    2
     9     9     8    1
    10     8     5    1
    11    33    29    1
    12    31    28    1
    13    29    32    1
    14    29    27    1
    15    28    30    1
    16    28    27    1
    17     5     6   ar
    18     5     4   ar
    19    27    26    2
    20     6     7   ar
    21     4     3   ar
    22    26    23    1
    23    22    23   ar
    24    22    21   ar
    25     7     2   ar
    26     3     2   ar
    27    23    24   ar
    28    21    20   ar
    29     2     1    1
    30    24    25   ar
    31    20    25   ar
    32    20    18    1
    33     1    18    1
    34    18    19    2
@<TRIPOS>MOLECULE
./../dock_file/temp/9500775f823359490cf1cd87815470de/Camostat_Ligand_CID_2536:hmTMPRSS11_D:20230418105132/Camostat_Ligand_CID_2536:hmTMPRSS11_D_out_1.pdbqt
 33 34 0 0 0
SMALL
GASTEIGER

@<TRIPOS>ATOM
      1  O         -8.9550    5.0770   18.0960 O.3     1  LIG1       -0.2750
      2  C         -8.4490    3.8140   18.1100 C.ar    1  LIG1        0.0790
      3  C         -8.8200    2.9010   17.1220 C.ar    1  LIG1        0.0380
      4  C         -8.3010    1.6070   17.1370 C.ar    1  LIG1        0.0100
      5  C         -7.4090    1.2250   18.1400 C.ar    1  LIG1       -0.0490
      6  C         -7.0380    2.1370   19.1280 C.ar    1  LIG1        0.0100
      7  C         -7.5570    3.4320   19.1120 C.ar    1  LIG1        0.0380
      8  C         -6.8480   -0.1730   18.1560 C.3     1  LIG1        0.1490
      9  C         -7.3630   -1.0280   17.0220 C.2     1  LIG1        0.2630
     10  O         -8.3890   -1.6950   17.0460 O.2     1  LIG1       -0.2650
     11  O         -6.5020   -0.9420   15.9540 O.3     1  LIG1       -0.3120
     12  C         -7.0890   -1.0040   14.6720 C.3     1  LIG1        0.2810
     13  C         -6.6400    0.1860   13.8490 C.2     1  LIG1        0.2430
     14  O         -6.2820    1.2120   14.4350 O.2     1  LIG1       -0.2710
     15  N         -6.6500    0.0470   12.4610 N.am    1  LIG1       -0.3590
     16  C         -7.0530   -1.1540   11.7320 C.3     1  LIG1        0.1520
     17  C         -6.2190    1.1620   11.6270 C.3     1  LIG1        0.1520
     18  C         -8.0110    6.0780   18.3360 C.2     1  LIG1        0.2980
     19  O         -7.9650    6.7910   19.3260 O.2     1  LIG1       -0.2590
     20  C         -7.0500    6.1880   17.2090 C.ar    1  LIG1        0.0400
     21  C         -5.6870    5.9940   17.4330 C.ar    1  LIG1        0.0200
     22  C         -4.7850    6.0980   16.3740 C.ar    1  LIG1        0.0330
     23  C         -5.2450    6.3970   15.0920 C.ar    1  LIG1        0.0750
     24  C         -6.6080    6.5910   14.8670 C.ar    1  LIG1        0.0330
     25  C         -7.5110    6.4870   15.9260 C.ar    1  LIG1        0.0200
     26  N         -4.3400    6.5010   14.0300 N.pl3   1  LIG1       -0.0660
     27  C         -3.7290    7.6430   13.8280 C.cat   1  LIG1        0.6920
     28  N         -3.8680    8.8050   14.5570 N.pl3   1  LIG1       -0.2330
     29  N         -2.8320    7.7870   12.7960 N.pl3   1  LIG1       -0.2330
     30  H         -4.4830    8.8330   15.3240 H       1  LIG1        0.1740
     31  H         -3.3530    9.6060   14.3070 H       1  LIG1        0.1740
     32  H         -2.6420    7.0280   12.1990 H       1  LIG1        0.1740
     33  H         -2.3790    8.6500   12.6540 H       1  LIG1        0.1740
@<TRIPOS>BOND
     1    17    15    1
     2    16    15    1
     3    32    29    1
     4    15    13   am
     5    33    29    1
     6    29    27    1
     7    27    26    2
     8    27    28    1
     9    13    14    2
    10    13    12    1
    11    26    23    1
    12    31    28    1
    13    28    30    1
    14    12    11    1
    15    24    23   ar
    16    24    25   ar
    17    23    22   ar
    18    25    20   ar
    19    11     9    1
    20    22    21   ar
    21     9    10    2
    22     9     8    1
    23     3     4   ar
    24     3     2   ar
    25     4     5   ar
    26    20    21   ar
    27    20    18    1
    28     1     2    1
    29     1    18    1
    30     2     7   ar
    31     5     8    1
    32     5     6   ar
    33    18    19    2
    34     7     6   ar
@<TRIPOS>MOLECULE
./../dock_file/temp/9500775f823359490cf1cd87815470de/Camostat_Ligand_CID_2536:hmTMPRSS11_D:20230418105132/Camostat_Ligand_CID_2536:hmTMPRSS11_D_out_1.pdbqt
 33 34 0 0 0
SMALL
GASTEIGER

@<TRIPOS>ATOM
      1  O         -7.7150    3.6220   19.0370 O.3     1  LIG1       -0.2750
      2  C         -7.4900    2.4610   18.3630 C.ar    1  LIG1        0.0790
      3  C         -7.6880    2.4050   16.9830 C.ar    1  LIG1        0.0380
      4  C         -7.4570    1.2160   16.2930 C.ar    1  LIG1        0.0100
      5  C         -7.0280    0.0810   16.9820 C.ar    1  LIG1       -0.0490
      6  C         -6.8300    0.1370   18.3620 C.ar    1  LIG1        0.0100
      7  C         -7.0610    1.3270   19.0530 C.ar    1  LIG1        0.0380
      8  C         -6.7780   -1.2040   16.2370 C.3     1  LIG1        0.1490
      9  C         -7.9680   -2.1360   16.2550 C.2     1  LIG1        0.2630
     10  O         -8.5540   -2.5180   17.2580 O.2     1  LIG1       -0.2650
     11  O         -8.2930   -2.4890   14.9660 O.3     1  LIG1       -0.3120
     12  C         -9.0730   -1.5610   14.2430 C.3     1  LIG1        0.2810
     13  C         -8.9900   -1.8690   12.7630 C.2     1  LIG1        0.2430
     14  O         -9.8440   -2.6040   12.2600 O.2     1  LIG1       -0.2710
     15  N         -7.9430   -1.2900   12.0440 N.am    1  LIG1       -0.3590
     16  C         -6.9220   -0.4040   12.5990 C.3     1  LIG1        0.1520
     17  C         -7.8260   -1.5510   10.6150 C.3     1  LIG1        0.1520
     18  C         -6.5920    4.4440   19.1560 C.2     1  LIG1        0.2980
     19  O         -5.4890    4.0920   19.5450 O.2     1  LIG1       -0.2590
     20  C         -6.9070    5.8400   18.7590 C.ar    1  LIG1        0.0400
     21  C         -5.9420    6.6170   18.1200 C.ar    1  LIG1        0.0200
     22  C         -6.2380    7.9290   17.7470 C.ar    1  LIG1        0.0330
     23  C         -7.4980    8.4630   18.0140 C.ar    1  LIG1        0.0750
     24  C         -8.4640    7.6860   18.6550 C.ar    1  LIG1        0.0330
     25  C         -8.1680    6.3750   19.0280 C.ar    1  LIG1        0.0200
     26  N         -7.7940    9.7780   17.6400 N.pl3   1  LIG1       -0.0660
     27  C         -7.6210   10.7400   18.5140 C.cat   1  LIG1        0.6920
     28  N         -7.1660   10.6190   19.8100 N.pl3   1  LIG1       -0.2330
     29  N         -7.9010   12.0460   18.1860 N.pl3   1  LIG1       -0.2330
     30  H         -6.9310    9.7330   20.1680 H       1  LIG1        0.1740
     31  H         -7.0770   11.4190   20.3770 H       1  LIG1        0.1740
     32  H         -8.2340   12.2670   17.2870 H       1  LIG1        0.1740
     33  H         -7.7660   12.7590   18.8520 H       1  LIG1        0.1740
@<TRIPOS>BOND
     1    17    15    1
     2    15    16    1
     3    15    13   am
     4    14    13    2
     5    13    12    1
     6    12    11    1
     7    11     9    1
     8     8     9    1
     9     8     5    1
    10     9    10    2
    11     4     5   ar
    12     4     3   ar
    13     5     6   ar
    14     3     2   ar
    15    32    29    1
    16    26    23    1
    17    26    27    2
    18    22    23   ar
    19    22    21   ar
    20    23    24   ar
    21    21    20   ar
    22    29    27    1
    23    29    33    1
    24     6     7   ar
    25     2     1    1
    26     2     7   ar
    27    27    28    1
    28    24    25   ar
    29    20    25   ar
    30    20    18    1
    31     1    18    1
    32    18    19    2
    33    28    30    1
    34    28    31    1
@<TRIPOS>MOLECULE
./../dock_file/temp/9500775f823359490cf1cd87815470de/Camostat_Ligand_CID_2536:hmTMPRSS11_D:20230418105132/Camostat_Ligand_CID_2536:hmTMPRSS11_D_out_1.pdbqt
 33 34 0 0 0
SMALL
GASTEIGER

@<TRIPOS>ATOM
      1  O         -6.4750    2.0890   12.2680 O.3     1  LIG1       -0.2750
      2  C         -6.6750    1.1490   13.2320 C.ar    1  LIG1        0.0790
      3  C         -6.7010    1.5230   14.5760 C.ar    1  LIG1        0.0380
      4  C         -6.9060    0.5600   15.5630 C.ar    1  LIG1        0.0100
      5  C         -7.0870   -0.7770   15.2080 C.ar    1  LIG1       -0.0490
      6  C         -7.0620   -1.1500   13.8640 C.ar    1  LIG1        0.0100
      7  C         -6.8570   -0.1870   12.8760 C.ar    1  LIG1        0.0380
      8  C         -7.3090   -1.8170   16.2750 C.3     1  LIG1        0.1490
      9  C         -8.6540   -2.4980   16.1640 C.2     1  LIG1        0.2630
     10  O         -8.8700   -3.5500   15.5780 O.2     1  LIG1       -0.2650
     11  O         -9.6010   -1.7520   16.8240 O.3     1  LIG1       -0.3120
     12  C        -10.7470   -1.3970   16.0790 C.3     1  LIG1        0.2810
     13  C        -10.5590   -0.0180   15.4810 C.2     1  LIG1        0.2430
     14  O        -10.4180    0.9440   16.2400 O.2     1  LIG1       -0.2710
     15  N        -10.5460    0.0820   14.0890 N.am    1  LIG1       -0.3590
     16  C        -10.6940   -1.0340   13.1580 C.3     1  LIG1        0.1520
     17  C        -10.3590    1.3860   13.4670 C.3     1  LIG1        0.1520
     18  C         -5.1400    2.4670   12.1020 C.2     1  LIG1        0.2980
     19  O         -4.2670    1.7880   11.5850 O.2     1  LIG1       -0.2590
     20  C         -4.8950    3.8220   12.6580 C.ar    1  LIG1        0.0400
     21  C         -3.9580    3.9980   13.6760 C.ar    1  LIG1        0.0200
     22  C         -3.7270    5.2710   14.1980 C.ar    1  LIG1        0.0330
     23  C         -4.4330    6.3670   13.7030 C.ar    1  LIG1        0.0750
     24  C         -5.3710    6.1910   12.6850 C.ar    1  LIG1        0.0330
     25  C         -5.6020    4.9180   12.1630 C.ar    1  LIG1        0.0200
     26  N         -4.2020    7.6430   14.2270 N.pl3   1  LIG1       -0.0660
     27  C         -3.2750    8.3940   13.6810 C.cat   1  LIG1        0.6920
     28  N         -2.4650    8.0750   12.6120 N.pl3   1  LIG1       -0.2330
     29  N         -3.0170    9.6550   14.1650 N.pl3   1  LIG1       -0.2330
     30  H         -2.5510    7.1980   12.1740 H       1  LIG1        0.1740
     31  H         -1.8000    8.7250   12.2880 H       1  LIG1        0.1740
     32  H         -3.5300   10.0030   14.9290 H       1  LIG1        0.1740
     33  H         -2.3190   10.2090   13.7460 H       1  LIG1        0.1740
@<TRIPOS>BOND
     1    19    18    2
     2    18     1    1
     3    18    20    1
     4    25    20   ar
     5    25    24   ar
     6    30    28    1
     7     1     2    1
     8    31    28    1
     9    28    27    1
    10    20    21   ar
    11    24    23   ar
    12     7     2   ar
    13     7     6   ar
    14    16    15    1
    15     2     3   ar
    16    17    15    1
    17    21    22   ar
    18    27    29    1
    19    27    26    2
    20    23    22   ar
    21    23    26    1
    22    33    29    1
    23     6     5   ar
    24    15    13   am
    25    29    32    1
    26     3     4   ar
    27     5     4   ar
    28     5     8    1
    29    13    12    1
    30    13    14    2
    31    10     9    2
    32    12    11    1
    33     9     8    1
    34     9    11    1
