@<TRIPOS>MOLECULE
./../dock_file/temp/c85520a79fe3252f1e64fbd1fbc05b38/Camostat_Ligand_CID_2536:hmTMPRSS5:20230414003128/Camostat_Ligand_CID_2536:hmTMPRSS5_out_2.pdbqt
 33 34 0 0 0
SMALL
GASTEIGER

@<TRIPOS>ATOM
      1  O         13.8570    1.6450   34.2690 O.3     1  LIG1       -0.2750
      2  C         14.5330    0.9360   33.3240 C.ar    1  LIG1        0.0790
      3  C         14.5470    1.3740   31.9990 C.ar    1  LIG1        0.0380
      4  C         15.2400    0.6480   31.0320 C.ar    1  LIG1        0.0100
      5  C         15.9210   -0.5170   31.3870 C.ar    1  LIG1       -0.0490
      6  C         15.9070   -0.9550   32.7120 C.ar    1  LIG1        0.0100
      7  C         15.2140   -0.2280   33.6800 C.ar    1  LIG1        0.0380
      8  C         16.6700   -1.3010   30.3420 C.3     1  LIG1        0.1490
      9  C         16.3550   -2.7790   30.3770 C.2     1  LIG1        0.2630
     10  O         16.9870   -3.6230   30.9960 O.2     1  LIG1       -0.2650
     11  O         15.2460   -3.0300   29.6050 O.3     1  LIG1       -0.3120
     12  C         15.0290   -4.3780   29.2450 C.3     1  LIG1        0.2810
     13  C         15.6850   -4.6600   27.9090 C.2     1  LIG1        0.2430
     14  O         15.4180   -3.9300   26.9510 O.2     1  LIG1       -0.2710
     15  N         16.5710   -5.7360   27.8430 N.am    1  LIG1       -0.3590
     16  C         16.9240   -6.6130   28.9580 C.3     1  LIG1        0.1520
     17  C         17.2330   -6.0420   26.5810 C.3     1  LIG1        0.1520
     18  C         14.5340    1.7730   35.4840 C.2     1  LIG1        0.2980
     19  O         14.4040    1.0390   36.4530 O.2     1  LIG1       -0.2590
     20  C         15.4430    2.9470   35.4700 C.ar    1  LIG1        0.0400
     21  C         14.9640    4.1950   35.0730 C.ar    1  LIG1        0.0200
     22  C         15.8180    5.2980   35.0600 C.ar    1  LIG1        0.0330
     23  C         17.1510    5.1520   35.4430 C.ar    1  LIG1        0.0750
     24  C         17.6310    3.9040   35.8400 C.ar    1  LIG1        0.0330
     25  C         16.7770    2.8010   35.8530 C.ar    1  LIG1        0.0200
     26  N         18.0070    6.2580   35.4300 N.pl3   1  LIG1       -0.0660
     27  C         18.7490    6.4730   34.3700 C.cat   1  LIG1        0.6920
     28  N         18.7960    5.7190   33.2180 N.pl3   1  LIG1       -0.2330
     29  N         19.6040    7.5490   34.3170 N.pl3   1  LIG1       -0.2330
     30  H         18.2310    4.9190   33.1300 H       1  LIG1        0.1740
     31  H         19.3980    5.9810   32.4830 H       1  LIG1        0.1740
     32  H         19.6630    8.1680   35.0800 H       1  LIG1        0.1740
     33  H         20.1550    7.7000   33.5150 H       1  LIG1        0.1740
@<TRIPOS>BOND
     1    17    15    1
     2    14    13    2
     3    15    13   am
     4    15    16    1
     5    13    12    1
     6    12    11    1
     7    11     9    1
     8     8     9    1
     9     8     5    1
    10     9    10    2
    11     4     5   ar
    12     4     3   ar
    13     5     6   ar
    14     3     2   ar
    15    31    28    1
    16     6     7   ar
    17    30    28    1
    18    28    27    1
    19     2     7   ar
    20     2     1    1
    21    33    29    1
    22     1    18    1
    23    29    27    1
    24    29    32    1
    25    27    26    2
    26    22    21   ar
    27    22    23   ar
    28    21    20   ar
    29    26    23    1
    30    23    24   ar
    31    20    18    1
    32    20    25   ar
    33    18    19    2
    34    24    25   ar
@<TRIPOS>MOLECULE
./../dock_file/temp/c85520a79fe3252f1e64fbd1fbc05b38/Camostat_Ligand_CID_2536:hmTMPRSS5:20230414003128/Camostat_Ligand_CID_2536:hmTMPRSS5_out_2.pdbqt
 33 34 0 0 0
SMALL
GASTEIGER

@<TRIPOS>ATOM
      1  O         15.9610   -4.3760   31.2440 O.3     1  LIG1       -0.2750
      2  C         14.8230   -4.5510   31.9700 C.ar    1  LIG1        0.0790
      3  C         13.8870   -5.5100   31.5810 C.ar    1  LIG1        0.0380
      4  C         12.7220   -5.6890   32.3240 C.ar    1  LIG1        0.0100
      5  C         12.4910   -4.9110   33.4590 C.ar    1  LIG1       -0.0490
      6  C         13.4270   -3.9520   33.8480 C.ar    1  LIG1        0.0100
      7  C         14.5930   -3.7730   33.1040 C.ar    1  LIG1        0.0380
      8  C         11.2310   -5.1050   34.2630 C.3     1  LIG1        0.1490
      9  C         11.3700   -4.6460   35.6950 C.2     1  LIG1        0.2630
     10  O         11.0330   -3.5510   36.1250 O.2     1  LIG1       -0.2650
     11  O         11.9350   -5.6490   36.4460 O.3     1  LIG1       -0.3120
     12  C         11.6950   -6.9690   36.0050 C.3     1  LIG1        0.2810
     13  C         12.5360   -7.9360   36.8110 C.2     1  LIG1        0.2430
     14  O         12.2400   -8.1410   37.9910 O.2     1  LIG1       -0.2710
     15  N         13.6060   -8.5540   36.1600 N.am    1  LIG1       -0.3590
     16  C         13.9790   -8.3490   34.7630 C.3     1  LIG1        0.1520
     17  C         14.4390   -9.4990   36.8920 C.3     1  LIG1        0.1520
     18  C         15.7560   -3.8220   29.9780 C.2     1  LIG1        0.2980
     19  O         15.2210   -2.7480   29.7490 O.2     1  LIG1       -0.2590
     20  C         16.2620   -4.7220   28.9120 C.ar    1  LIG1        0.0400
     21  C         16.6750   -6.0150   29.2290 C.ar    1  LIG1        0.0200
     22  C         17.1510   -6.8610   28.2260 C.ar    1  LIG1        0.0330
     23  C         17.2150   -6.4130   26.9070 C.ar    1  LIG1        0.0750
     24  C         16.8020   -5.1190   26.5900 C.ar    1  LIG1        0.0330
     25  C         16.3260   -4.2730   27.5920 C.ar    1  LIG1        0.0200
     26  N         17.6920   -7.2610   25.9020 N.pl3   1  LIG1       -0.0660
     27  C         16.9540   -7.4580   24.8360 C.cat   1  LIG1        0.6920
     28  N         15.7160   -6.9160   24.5660 N.pl3   1  LIG1       -0.2330
     29  N         17.3860   -8.2840   23.8260 N.pl3   1  LIG1       -0.2330
     30  H         15.2940   -6.3060   25.2120 H       1  LIG1        0.1740
     31  H         15.2540   -7.1400   23.7250 H       1  LIG1        0.1740
     32  H         18.2590   -8.7340   23.8970 H       1  LIG1        0.1740
     33  H         16.8230   -8.4240   23.0300 H       1  LIG1        0.1740
@<TRIPOS>BOND
     1    33    29    1
     2    31    28    1
     3    29    32    1
     4    29    27    1
     5    28    27    1
     6    28    30    1
     7    27    26    2
     8    26    23    1
     9    24    23   ar
    10    24    25   ar
    11    23    22   ar
    12    25    20   ar
    13    22    21   ar
    14    20    21   ar
    15    20    18    1
    16    19    18    2
    17    18     1    1
    18     1     2    1
    19     3     2   ar
    20     3     4   ar
    21     2     7   ar
    22     4     5   ar
    23     7     6   ar
    24     5     6   ar
    25     5     8    1
    26     8     9    1
    27    16    15    1
    28     9    10    2
    29     9    11    1
    30    12    11    1
    31    12    13    1
    32    15    13   am
    33    15    17    1
    34    13    14    2
@<TRIPOS>MOLECULE
./../dock_file/temp/c85520a79fe3252f1e64fbd1fbc05b38/Camostat_Ligand_CID_2536:hmTMPRSS5:20230414003128/Camostat_Ligand_CID_2536:hmTMPRSS5_out_2.pdbqt
 33 34 0 0 0
SMALL
GASTEIGER

@<TRIPOS>ATOM
      1  O         14.0750   -8.9760   32.7750 O.3     1  LIG1       -0.2750
      2  C         14.7280   -7.9130   32.2310 C.ar    1  LIG1        0.0790
      3  C         14.2300   -6.6220   32.4110 C.ar    1  LIG1        0.0380
      4  C         14.8980   -5.5330   31.8530 C.ar    1  LIG1        0.0100
      5  C         16.0670   -5.7340   31.1170 C.ar    1  LIG1       -0.0490
      6  C         16.5640   -7.0250   30.9380 C.ar    1  LIG1        0.0100
      7  C         15.8950   -8.1140   31.4960 C.ar    1  LIG1        0.0380
      8  C         16.7900   -4.5570   30.5150 C.3     1  LIG1        0.1490
      9  C         16.2070   -4.1230   29.1900 C.2     1  LIG1        0.2630
     10  O         15.1530   -3.5210   29.0430 O.2     1  LIG1       -0.2650
     11  O         17.0470   -4.5080   28.1720 O.3     1  LIG1       -0.3120
     12  C         16.4260   -4.9210   26.9730 C.3     1  LIG1        0.2810
     13  C         17.1420   -6.1360   26.4210 C.2     1  LIG1        0.2430
     14  O         18.1200   -6.5760   27.0310 O.2     1  LIG1       -0.2710
     15  N         16.6410   -6.6980   25.2460 N.am    1  LIG1       -0.3590
     16  C         15.4780   -6.2160   24.5050 C.3     1  LIG1        0.1520
     17  C         17.2910   -7.8740   24.6810 C.3     1  LIG1        0.1520
     18  C         14.5020   -9.3170   34.0610 C.2     1  LIG1        0.2980
     19  O         15.4090   -8.7770   34.6770 O.2     1  LIG1       -0.2590
     20  C         13.7160  -10.4540   34.6030 C.ar    1  LIG1        0.0400
     21  C         13.3140  -11.4890   33.7590 C.ar    1  LIG1        0.0200
     22  C         12.5760  -12.5570   34.2680 C.ar    1  LIG1        0.0330
     23  C         12.2390  -12.5910   35.6210 C.ar    1  LIG1        0.0750
     24  C         12.6410  -11.5560   36.4660 C.ar    1  LIG1        0.0330
     25  C         13.3790  -10.4870   35.9570 C.ar    1  LIG1        0.0200
     26  N         11.4990  -13.6620   36.1320 N.pl3   1  LIG1       -0.0660
     27  C         10.1910  -13.5710   36.1640 C.cat   1  LIG1        0.6920
     28  N          9.4180  -12.5110   35.7430 N.pl3   1  LIG1       -0.2330
     29  N          9.4270  -14.6020   36.6580 N.pl3   1  LIG1       -0.2330
     30  H          9.8460  -11.7080   35.3680 H       1  LIG1        0.1740
     31  H          8.4370  -12.5570   35.8180 H       1  LIG1        0.1740
     32  H          9.8610  -15.4200   36.9920 H       1  LIG1        0.1740
     33  H          8.4460  -14.5210   36.6770 H       1  LIG1        0.1740
@<TRIPOS>BOND
     1    16    15    1
     2    17    15    1
     3    15    13   am
     4    13    12    1
     5    13    14    2
     6    12    11    1
     7    11     9    1
     8    10     9    2
     9     9     8    1
    10     8     5    1
    11     6     5   ar
    12     6     7   ar
    13     5     4   ar
    14     7     2   ar
    15     4     3   ar
    16     2     3   ar
    17     2     1    1
    18     1    18    1
    19    21    22   ar
    20    21    20   ar
    21    18    20    1
    22    18    19    2
    23    22    23   ar
    24    20    25   ar
    25    30    28    1
    26    23    26    1
    27    23    24   ar
    28    28    31    1
    29    28    27    1
    30    25    24   ar
    31    26    27    2
    32    27    29    1
    33    29    33    1
    34    29    32    1
@<TRIPOS>MOLECULE
./../dock_file/temp/c85520a79fe3252f1e64fbd1fbc05b38/Camostat_Ligand_CID_2536:hmTMPRSS5:20230414003128/Camostat_Ligand_CID_2536:hmTMPRSS5_out_2.pdbqt
 33 34 0 0 0
SMALL
GASTEIGER

@<TRIPOS>ATOM
      1  O         15.9710   -4.3530   31.3310 O.3     1  LIG1       -0.2750
      2  C         14.8580   -4.4640   32.1070 C.ar    1  LIG1        0.0790
      3  C         13.8980   -5.4330   31.8160 C.ar    1  LIG1        0.0380
      4  C         12.7590   -5.5470   32.6110 C.ar    1  LIG1        0.0100
      5  C         12.5780   -4.6910   33.6980 C.ar    1  LIG1       -0.0490
      6  C         13.5380   -3.7220   33.9890 C.ar    1  LIG1        0.0100
      7  C         14.6780   -3.6080   33.1940 C.ar    1  LIG1        0.0380
      8  C         11.3460   -4.8140   34.5570 C.3     1  LIG1        0.1490
      9  C         11.2770   -3.7630   35.6400 C.2     1  LIG1        0.2630
     10  O         11.1820   -2.5580   35.4540 O.2     1  LIG1       -0.2650
     11  O         11.3360   -4.3690   36.8730 O.3     1  LIG1       -0.3120
     12  C         12.5450   -5.0270   37.1880 C.3     1  LIG1        0.2810
     13  C         13.3640   -4.1640   38.1250 C.2     1  LIG1        0.2430
     14  O         14.0610   -3.2640   37.6470 O.2     1  LIG1       -0.2710
     15  N         13.2750   -4.4350   39.4910 N.am    1  LIG1       -0.3590
     16  C         12.4510   -5.4800   40.0950 C.3     1  LIG1        0.1520
     17  C         14.0380   -3.6260   40.4330 C.3     1  LIG1        0.1520
     18  C         15.7370   -3.8130   30.0640 C.2     1  LIG1        0.2980
     19  O         15.1740   -2.7530   29.8340 O.2     1  LIG1       -0.2590
     20  C         16.2520   -4.7080   28.9970 C.ar    1  LIG1        0.0400
     21  C         16.6210   -6.0170   29.3040 C.ar    1  LIG1        0.0200
     22  C         17.1040   -6.8580   28.3010 C.ar    1  LIG1        0.0330
     23  C         17.2190   -6.3900   26.9930 C.ar    1  LIG1        0.0750
     24  C         16.8500   -5.0800   26.6860 C.ar    1  LIG1        0.0330
     25  C         16.3670   -4.2390   27.6880 C.ar    1  LIG1        0.0200
     26  N         17.7040   -7.2340   25.9870 N.pl3   1  LIG1       -0.0660
     27  C         16.9750   -7.4230   24.9130 C.cat   1  LIG1        0.6920
     28  N         15.7420   -6.8760   24.6340 N.pl3   1  LIG1       -0.2330
     29  N         17.4160   -8.2450   23.9020 N.pl3   1  LIG1       -0.2330
     30  H         15.3150   -6.2690   25.2800 H       1  LIG1        0.1740
     31  H         15.2870   -7.0950   23.7880 H       1  LIG1        0.1740
     32  H         18.2860   -8.6970   23.9790 H       1  LIG1        0.1740
     33  H         16.8600   -8.3790   23.1010 H       1  LIG1        0.1740
@<TRIPOS>BOND
     1    33    29    1
     2    31    28    1
     3    29    32    1
     4    29    27    1
     5    28    27    1
     6    28    30    1
     7    27    26    2
     8    26    23    1
     9    24    23   ar
    10    24    25   ar
    11    23    22   ar
    12    25    20   ar
    13    22    21   ar
    14    20    21   ar
    15    20    18    1
    16    19    18    2
    17    18     1    1
    18     1     2    1
    19     3     2   ar
    20     3     4   ar
    21     2     7   ar
    22     4     5   ar
    23     7     6   ar
    24     5     6   ar
    25     5     8    1
    26     8     9    1
    27    10     9    2
    28     9    11    1
    29    11    12    1
    30    12    13    1
    31    14    13    2
    32    13    15   am
    33    15    16    1
    34    15    17    1
@<TRIPOS>MOLECULE
./../dock_file/temp/c85520a79fe3252f1e64fbd1fbc05b38/Camostat_Ligand_CID_2536:hmTMPRSS5:20230414003128/Camostat_Ligand_CID_2536:hmTMPRSS5_out_2.pdbqt
 33 34 0 0 0
SMALL
GASTEIGER

@<TRIPOS>ATOM
      1  O         16.2900   -3.7630   30.8830 O.3     1  LIG1       -0.2750
      2  C         15.9830   -2.4990   31.2830 C.ar    1  LIG1        0.0790
      3  C         15.4180   -2.2830   32.5400 C.ar    1  LIG1        0.0380
      4  C         15.1040   -0.9880   32.9500 C.ar    1  LIG1        0.0100
      5  C         15.3560    0.0920   32.1050 C.ar    1  LIG1       -0.0490
      6  C         15.9210   -0.1240   30.8470 C.ar    1  LIG1        0.0100
      7  C         16.2350   -1.4200   30.4370 C.ar    1  LIG1        0.0380
      8  C         15.0160    1.4920   32.5470 C.3     1  LIG1        0.1490
      9  C         16.0090    2.0540   33.5380 C.2     1  LIG1        0.2630
     10  O         17.1710    1.6910   33.6590 O.2     1  LIG1       -0.2650
     11  O         15.4070    3.0390   34.2840 O.3     1  LIG1       -0.3120
     12  C         16.0650    3.4090   35.4770 C.3     1  LIG1        0.2810
     13  C         16.5060    4.8550   35.3870 C.2     1  LIG1        0.2430
     14  O         15.6440    5.7340   35.3010 O.2     1  LIG1       -0.2710
     15  N         17.8770    5.1120   35.4170 N.am    1  LIG1       -0.3590
     16  C         18.9260    4.1010   35.5340 C.3     1  LIG1        0.1520
     17  C         18.3500    6.4880   35.3430 C.3     1  LIG1        0.1520
     18  C         15.3520   -4.3360   30.0210 C.2     1  LIG1        0.2980
     19  O         14.1380   -4.2750   30.1470 O.2     1  LIG1       -0.2590
     20  C         16.0180   -5.0650   28.9120 C.ar    1  LIG1        0.0400
     21  C         16.0100   -4.5310   27.6240 C.ar    1  LIG1        0.0200
     22  C         16.6370   -5.2150   26.5820 C.ar    1  LIG1        0.0330
     23  C         17.2700   -6.4330   26.8280 C.ar    1  LIG1        0.0750
     24  C         17.2780   -6.9670   28.1170 C.ar    1  LIG1        0.0330
     25  C         16.6520   -6.2830   29.1590 C.ar    1  LIG1        0.0200
     26  N         17.8990   -7.1190   25.7830 N.pl3   1  LIG1       -0.0660
     27  C         17.1720   -7.5450   24.7780 C.cat   1  LIG1        0.6920
     28  N         15.8120   -7.3990   24.6090 N.pl3   1  LIG1       -0.2330
     29  N         17.7510   -8.2230   23.7310 N.pl3   1  LIG1       -0.2330
     30  H         15.2800   -6.9310   25.2910 H       1  LIG1        0.1740
     31  H         15.3740   -7.7650   23.8070 H       1  LIG1        0.1740
     32  H         18.7210   -8.3930   23.7300 H       1  LIG1        0.1740
     33  H         17.1950   -8.5380   22.9810 H       1  LIG1        0.1740
@<TRIPOS>BOND
     1    33    29    1
     2    32    29    1
     3    29    27    1
     4    31    28    1
     5    28    27    1
     6    28    30    1
     7    27    26    2
     8    26    23    1
     9    22    23   ar
    10    22    21   ar
    11    23    24   ar
    12    21    20   ar
    13    24    25   ar
    14    20    25   ar
    15    20    18    1
    16    18    19    2
    17    18     1    1
    18     7     6   ar
    19     7     2   ar
    20     6     5   ar
    21     1     2    1
    22     2     3   ar
    23     5     8    1
    24     5     4   ar
    25     3     4   ar
    26     8     9    1
    27     9    10    2
    28     9    11    1
    29    11    12    1
    30    14    13    2
    31    17    15    1
    32    13    15   am
    33    13    12    1
    34    15    16    1
@<TRIPOS>MOLECULE
./../dock_file/temp/c85520a79fe3252f1e64fbd1fbc05b38/Camostat_Ligand_CID_2536:hmTMPRSS5:20230414003128/Camostat_Ligand_CID_2536:hmTMPRSS5_out_2.pdbqt
 33 34 0 0 0
SMALL
GASTEIGER

@<TRIPOS>ATOM
      1  O         16.6090   -3.5470   30.3010 O.3     1  LIG1       -0.2750
      2  C         16.2870   -2.3450   30.8520 C.ar    1  LIG1        0.0790
      3  C         15.6210   -2.2940   32.0760 C.ar    1  LIG1        0.0380
      4  C         15.2920   -1.0620   32.6400 C.ar    1  LIG1        0.0100
      5  C         15.6290    0.1200   31.9800 C.ar    1  LIG1       -0.0490
      6  C         16.2950    0.0690   30.7550 C.ar    1  LIG1        0.0100
      7  C         16.6240   -1.1640   30.1910 C.ar    1  LIG1        0.0380
      8  C         15.2720    1.4520   32.5890 C.3     1  LIG1        0.1490
      9  C         16.3070    1.9450   33.5720 C.2     1  LIG1        0.2630
     10  O         17.3680    2.4770   33.2780 O.2     1  LIG1       -0.2650
     11  O         15.8730    1.7060   34.8550 O.3     1  LIG1       -0.3120
     12  C         16.8450    1.2410   35.7670 C.3     1  LIG1        0.2810
     13  C         17.0410   -0.2500   35.5870 C.2     1  LIG1        0.2430
     14  O         18.0050   -0.6460   34.9270 O.2     1  LIG1       -0.2710
     15  N         16.1120   -1.0970   36.1920 N.am    1  LIG1       -0.3590
     16  C         14.9680   -0.6670   36.9930 C.3     1  LIG1        0.1520
     17  C         16.2630   -2.5400   36.0550 C.3     1  LIG1        0.1520
     18  C         15.5520   -4.1790   29.6420 C.2     1  LIG1        0.2980
     19  O         14.3790   -4.1440   29.9800 O.2     1  LIG1       -0.2590
     20  C         16.0340   -4.9340   28.4580 C.ar    1  LIG1        0.0400
     21  C         15.7710   -4.4590   27.1740 C.ar    1  LIG1        0.0200
     22  C         16.2250   -5.1680   26.0610 C.ar    1  LIG1        0.0330
     23  C         16.9410   -6.3530   26.2330 C.ar    1  LIG1        0.0750
     24  C         17.2040   -6.8290   27.5180 C.ar    1  LIG1        0.0330
     25  C         16.7500   -6.1200   28.6300 C.ar    1  LIG1        0.0200
     26  N         17.3950   -7.0640   25.1170 N.pl3   1  LIG1       -0.0660
     27  C         16.5270   -7.4470   24.2130 C.cat   1  LIG1        0.6920
     28  N         15.1660   -7.2310   24.2180 N.pl3   1  LIG1       -0.2330
     29  N         16.9330   -8.1480   23.1010 N.pl3   1  LIG1       -0.2330
     30  H         14.7480   -6.7400   24.9620 H       1  LIG1        0.1740
     31  H         14.6110   -7.5690   23.4780 H       1  LIG1        0.1740
     32  H         17.8840   -8.3670   22.9780 H       1  LIG1        0.1740
     33  H         16.2710   -8.4290   22.4290 H       1  LIG1        0.1740
@<TRIPOS>BOND
     1    33    29    1
     2    32    29    1
     3    29    27    1
     4    31    28    1
     5    27    28    1
     6    27    26    2
     7    28    30    1
     8    26    23    1
     9    22    23   ar
    10    22    21   ar
    11    23    24   ar
    12    21    20   ar
    13    24    25   ar
    14    20    25   ar
    15    20    18    1
    16    18    19    2
    17    18     1    1
    18     7     6   ar
    19     7     2   ar
    20     1     2    1
    21     6     5   ar
    22     2     3   ar
    23     5     8    1
    24     5     4   ar
    25     3     4   ar
    26     8     9    1
    27    10     9    2
    28     9    11    1
    29    11    12    1
    30    14    13    2
    31    13    12    1
    32    13    15   am
    33    17    15    1
    34    15    16    1
@<TRIPOS>MOLECULE
./../dock_file/temp/c85520a79fe3252f1e64fbd1fbc05b38/Camostat_Ligand_CID_2536:hmTMPRSS5:20230414003128/Camostat_Ligand_CID_2536:hmTMPRSS5_out_2.pdbqt
 33 34 0 0 0
SMALL
GASTEIGER

@<TRIPOS>ATOM
      1  O         15.4110   -2.5080   30.2120 O.3     1  LIG1       -0.2750
      2  C         16.4430   -1.6870   30.5490 C.ar    1  LIG1        0.0790
      3  C         17.2750   -2.0140   31.6200 C.ar    1  LIG1        0.0380
      4  C         18.3310   -1.1720   31.9650 C.ar    1  LIG1        0.0100
      5  C         18.5590   -0.0040   31.2370 C.ar    1  LIG1       -0.0490
      6  C         17.7280    0.3230   30.1660 C.ar    1  LIG1        0.0100
      7  C         16.6700   -0.5180   29.8210 C.ar    1  LIG1        0.0380
      8  C         19.7010    0.9060   31.6100 C.3     1  LIG1        0.1490
      9  C         19.4870    1.6110   32.9280 C.2     1  LIG1        0.2630
     10  O         20.2160    1.5230   33.9060 O.2     1  LIG1       -0.2650
     11  O         18.3440    2.3730   32.8600 O.3     1  LIG1       -0.3120
     12  C         17.4240    2.2130   33.9200 C.3     1  LIG1        0.2810
     13  C         16.1560    1.5680   33.4000 C.2     1  LIG1        0.2430
     14  O         15.5480    2.1150   32.4760 O.2     1  LIG1       -0.2710
     15  N         15.7520    0.3740   33.9980 N.am    1  LIG1       -0.3590
     16  C         16.4530   -0.3110   35.0820 C.3     1  LIG1        0.1520
     17  C         14.5430   -0.2900   33.5260 C.3     1  LIG1        0.1520
     18  C         15.7990   -3.6820   29.5620 C.2     1  LIG1        0.2980
     19  O         16.3380   -3.7460   28.4680 O.2     1  LIG1       -0.2590
     20  C         15.4570   -4.8790   30.3710 C.ar    1  LIG1        0.0400
     21  C         16.2510   -6.0230   30.2950 C.ar    1  LIG1        0.0200
     22  C         15.9300   -7.1470   31.0550 C.ar    1  LIG1        0.0330
     23  C         14.8140   -7.1290   31.8910 C.ar    1  LIG1        0.0750
     24  C         14.0180   -5.9850   31.9670 C.ar    1  LIG1        0.0330
     25  C         14.3400   -4.8610   31.2070 C.ar    1  LIG1        0.0200
     26  N         14.4910   -8.2570   32.6530 N.pl3   1  LIG1       -0.0660
     27  C         14.9550   -8.3480   33.8770 C.cat   1  LIG1        0.6920
     28  N         15.7520   -7.4390   34.5370 N.pl3   1  LIG1       -0.2330
     29  N         14.6610   -9.4410   34.6590 N.pl3   1  LIG1       -0.2330
     30  H         16.0350   -6.6120   34.0850 H       1  LIG1        0.1740
     31  H         16.0400   -7.6190   35.4620 H       1  LIG1        0.1740
     32  H         14.0970  -10.1640   34.3020 H       1  LIG1        0.1740
     33  H         15.0140   -9.4980   35.5760 H       1  LIG1        0.1740
@<TRIPOS>BOND
     1    19    18    2
     2    18     1    1
     3    18    20    1
     4     7     6   ar
     5     7     2   ar
     6     6     5   ar
     7     1     2    1
     8    21    20   ar
     9    21    22   ar
    10    20    25   ar
    11     2     3   ar
    12    22    23   ar
    13    25    24   ar
    14     5     8    1
    15     5     4   ar
    16     8     9    1
    17     3     4   ar
    18    23    24   ar
    19    23    26    1
    20    14    13    2
    21    26    27    2
    22    11     9    1
    23    11    12    1
    24     9    10    2
    25    13    12    1
    26    13    15   am
    27    17    15    1
    28    27    28    1
    29    27    29    1
    30    15    16    1
    31    30    28    1
    32    32    29    1
    33    28    31    1
    34    29    33    1
@<TRIPOS>MOLECULE
./../dock_file/temp/c85520a79fe3252f1e64fbd1fbc05b38/Camostat_Ligand_CID_2536:hmTMPRSS5:20230414003128/Camostat_Ligand_CID_2536:hmTMPRSS5_out_2.pdbqt
 33 34 0 0 0
SMALL
GASTEIGER

@<TRIPOS>ATOM
      1  O         16.3150   -4.3200   31.1510 O.3     1  LIG1       -0.2750
      2  C         15.3660   -4.7910   32.0050 C.ar    1  LIG1        0.0790
      3  C         15.2100   -4.2100   33.2640 C.ar    1  LIG1        0.0380
      4  C         14.2380   -4.6930   34.1390 C.ar    1  LIG1        0.0100
      5  C         13.4200   -5.7560   33.7560 C.ar    1  LIG1       -0.0490
      6  C         13.5760   -6.3360   32.4970 C.ar    1  LIG1        0.0100
      7  C         14.5490   -5.8530   31.6210 C.ar    1  LIG1        0.0380
      8  C         12.3690   -6.2780   34.7010 C.3     1  LIG1        0.1490
      9  C         12.8180   -7.5030   35.4620 C.2     1  LIG1        0.2630
     10  O         12.7650   -8.6530   35.0500 O.2     1  LIG1       -0.2650
     11  O         13.3000   -7.1280   36.6940 O.3     1  LIG1       -0.3120
     12  C         12.3350   -6.9120   37.7020 C.3     1  LIG1        0.2810
     13  C         12.4730   -7.9740   38.7740 C.2     1  LIG1        0.2430
     14  O         12.2560   -9.1510   38.4740 O.2     1  LIG1       -0.2710
     15  N         12.8490   -7.5530   40.0500 N.am    1  LIG1       -0.3590
     16  C         13.1280   -6.1730   40.4390 C.3     1  LIG1        0.1520
     17  C         13.0030   -8.5390   41.1120 C.3     1  LIG1        0.1520
     18  C         15.8200   -3.9170   29.9080 C.2     1  LIG1        0.2980
     19  O         15.0530   -2.9870   29.7130 O.2     1  LIG1       -0.2590
     20  C         16.3360   -4.7860   28.8200 C.ar    1  LIG1        0.0400
     21  C         16.8600   -6.0430   29.1200 C.ar    1  LIG1        0.0200
     22  C         17.3440   -6.8600   28.0980 C.ar    1  LIG1        0.0330
     23  C         17.3050   -6.4190   26.7750 C.ar    1  LIG1        0.0750
     24  C         16.7810   -5.1610   26.4740 C.ar    1  LIG1        0.0330
     25  C         16.2970   -4.3450   27.4960 C.ar    1  LIG1        0.0200
     26  N         17.7910   -7.2380   25.7500 N.pl3   1  LIG1       -0.0660
     27  C         17.0070   -7.5140   24.7350 C.cat   1  LIG1        0.6920
     28  N         15.7130   -7.0840   24.5380 N.pl3   1  LIG1       -0.2330
     29  N         17.4470   -8.3150   23.7070 N.pl3   1  LIG1       -0.2330
     30  H         15.2800   -6.5040   25.2050 H       1  LIG1        0.1740
     31  H         15.2200   -7.3600   23.7310 H       1  LIG1        0.1740
     32  H         18.3570   -8.6860   23.7270 H       1  LIG1        0.1740
     33  H         16.8490   -8.5140   22.9500 H       1  LIG1        0.1740
@<TRIPOS>BOND
     1    33    29    1
     2    29    32    1
     3    29    27    1
     4    31    28    1
     5    28    27    1
     6    28    30    1
     7    27    26    2
     8    26    23    1
     9    24    23   ar
    10    24    25   ar
    11    23    22   ar
    12    25    20   ar
    13    22    21   ar
    14    20    21   ar
    15    20    18    1
    16    19    18    2
    17    18     1    1
    18     1     2    1
    19     7     2   ar
    20     7     6   ar
    21     2     3   ar
    22     6     5   ar
    23     3     4   ar
    24     5     4   ar
    25     5     8    1
    26     8     9    1
    27    10     9    2
    28     9    11    1
    29    11    12    1
    30    12    13    1
    31    14    13    2
    32    13    15   am
    33    15    16    1
    34    15    17    1
@<TRIPOS>MOLECULE
./../dock_file/temp/c85520a79fe3252f1e64fbd1fbc05b38/Camostat_Ligand_CID_2536:hmTMPRSS5:20230414003128/Camostat_Ligand_CID_2536:hmTMPRSS5_out_2.pdbqt
 33 34 0 0 0
SMALL
GASTEIGER

@<TRIPOS>ATOM
      1  O         15.1820   -0.8900   30.4480 O.3     1  LIG1       -0.2750
      2  C         14.8730   -0.1200   31.5260 C.ar    1  LIG1        0.0790
      3  C         14.6410    1.2460   31.3650 C.ar    1  LIG1        0.0380
      4  C         14.3260    2.0350   32.4710 C.ar    1  LIG1        0.0100
      5  C         14.2410    1.4580   33.7380 C.ar    1  LIG1       -0.0490
      6  C         14.4730    0.0920   33.8990 C.ar    1  LIG1        0.0100
      7  C         14.7890   -0.6970   32.7930 C.ar    1  LIG1        0.0380
      8  C         13.9000    2.3100   34.9330 C.3     1  LIG1        0.1490
      9  C         15.0900    3.0640   35.4790 C.2     1  LIG1        0.2630
     10  O         15.4470    4.1780   35.1240 O.2     1  LIG1       -0.2650
     11  O         15.7140    2.3030   36.4390 O.3     1  LIG1       -0.3120
     12  C         17.1190    2.2070   36.3440 C.3     1  LIG1        0.2810
     13  C         17.4960    0.9120   35.6540 C.2     1  LIG1        0.2430
     14  O         17.3480   -0.1500   36.2630 O.2     1  LIG1       -0.2710
     15  N         17.9850    0.9980   34.3490 N.am    1  LIG1       -0.3590
     16  C         18.1590    2.2350   33.5900 C.3     1  LIG1        0.1520
     17  C         18.3520   -0.2210   33.6410 C.3     1  LIG1        0.1520
     18  C         16.5300   -1.2440   30.3600 C.2     1  LIG1        0.2980
     19  O         17.4620   -0.4690   30.2040 O.2     1  LIG1       -0.2590
     20  C         16.7060   -2.7150   30.4660 C.ar    1  LIG1        0.0400
     21  C         16.2380   -3.5480   29.4510 C.ar    1  LIG1        0.0200
     22  C         16.4030   -4.9300   29.5500 C.ar    1  LIG1        0.0330
     23  C         17.0360   -5.4780   30.6650 C.ar    1  LIG1        0.0750
     24  C         17.5040   -4.6450   31.6820 C.ar    1  LIG1        0.0330
     25  C         17.3380   -3.2640   31.5830 C.ar    1  LIG1        0.0200
     26  N         17.2010   -6.8640   30.7650 N.pl3   1  LIG1       -0.0660
     27  C         16.2870   -7.5680   31.3870 C.cat   1  LIG1        0.6920
     28  N         15.1350   -7.1010   31.9820 N.pl3   1  LIG1       -0.2330
     29  N         16.4120   -8.9320   31.5070 N.pl3   1  LIG1       -0.2330
     30  H         14.9280   -6.1400   31.9660 H       1  LIG1        0.1740
     31  H         14.5190   -7.7310   32.4240 H       1  LIG1        0.1740
     32  H         17.1940   -9.3900   31.1230 H       1  LIG1        0.1740
     33  H         15.7190   -9.4500   31.9760 H       1  LIG1        0.1740
@<TRIPOS>BOND
     1    21    22   ar
     2    21    20   ar
     3    22    23   ar
     4    19    18    2
     5    18     1    1
     6    18    20    1
     7     1     2    1
     8    20    25   ar
     9    23    26    1
    10    23    24   ar
    11    26    27    2
    12    32    29    1
    13     3     2   ar
    14     3     4   ar
    15    27    29    1
    16    27    28    1
    17    29    33    1
    18     2     7   ar
    19    25    24   ar
    20    30    28    1
    21    28    31    1
    22     4     5   ar
    23     7     6   ar
    24    16    15    1
    25    17    15    1
    26     5     6   ar
    27     5     8    1
    28    15    13   am
    29     8     9    1
    30    10     9    2
    31     9    11    1
    32    13    14    2
    33    13    12    1
    34    12    11    1
