@<TRIPOS>MOLECULE
./../dock_file/temp/c85520a79fe3252f1e64fbd1fbc05b38/Camostat_Ligand_CID_2536:hmTMPRSS5:20230414003128/Camostat_Ligand_CID_2536:hmTMPRSS5_out_3.pdbqt
 33 34 0 0 0
SMALL
GASTEIGER

@<TRIPOS>ATOM
      1  O         11.4770   -2.8610    4.4010 O.3     1  LIG1       -0.2750
      2  C         12.7150   -2.3400    4.6220 C.ar    1  LIG1        0.0790
      3  C         13.7430   -2.5680    3.7060 C.ar    1  LIG1        0.0380
      4  C         15.0100   -2.0350    3.9330 C.ar    1  LIG1        0.0100
      5  C         15.2520   -1.2710    5.0760 C.ar    1  LIG1       -0.0490
      6  C         14.2250   -1.0430    5.9910 C.ar    1  LIG1        0.0100
      7  C         12.9560   -1.5770    5.7640 C.ar    1  LIG1        0.0380
      8  C         16.6220   -0.6950    5.3210 C.3     1  LIG1        0.1490
      9  C         17.0480    0.2870    4.2540 C.2     1  LIG1        0.2630
     10  O         17.9320    0.0980    3.4300 O.2     1  LIG1       -0.2650
     11  O         16.2880    1.4280    4.3500 O.3     1  LIG1       -0.3120
     12  C         15.7040    1.8920    3.1520 C.3     1  LIG1        0.2810
     13  C         14.3160    2.4270    3.4350 C.2     1  LIG1        0.2430
     14  O         13.5280    1.7230    4.0730 O.2     1  LIG1       -0.2710
     15  N         14.0090    3.7020    2.9600 N.am    1  LIG1       -0.3590
     16  C         14.9180    4.5700    2.2150 C.3     1  LIG1        0.1520
     17  C         12.6880    4.2630    3.2150 C.3     1  LIG1        0.1520
     18  C         10.8030   -2.2990    3.3130 C.2     1  LIG1        0.2980
     19  O         10.6540   -2.8230    2.2200 O.2     1  LIG1       -0.2590
     20  C         10.2890   -0.9460    3.6440 C.ar    1  LIG1        0.0400
     21  C         10.5850    0.1350    2.8140 C.ar    1  LIG1        0.0200
     22  C         10.1010    1.4060    3.1240 C.ar    1  LIG1        0.0330
     23  C          9.3220    1.5970    4.2640 C.ar    1  LIG1        0.0750
     24  C          9.0250    0.5160    5.0950 C.ar    1  LIG1        0.0330
     25  C          9.5090   -0.7550    4.7850 C.ar    1  LIG1        0.0200
     26  N          8.8370    2.8710    4.5750 N.pl3   1  LIG1       -0.0660
     27  C          9.5000    3.6110    5.4320 C.cat   1  LIG1        0.6920
     28  N         10.6630    3.2810    6.0940 N.pl3   1  LIG1       -0.2330
     29  N          9.0570    4.8690    5.7640 N.pl3   1  LIG1       -0.2330
     30  H         11.0830    2.4040    5.9440 H       1  LIG1        0.1740
     31  H         11.0720    3.9220    6.7190 H       1  LIG1        0.1740
     32  H          8.2340    5.2250    5.3580 H       1  LIG1        0.1740
     33  H          9.5640    5.4150    6.4090 H       1  LIG1        0.1740
@<TRIPOS>BOND
     1    16    15    1
     2    19    18    2
     3    21    22   ar
     4    21    20   ar
     5    15    17    1
     6    15    13   am
     7    22    23   ar
     8    12    13    1
     9    12    11    1
    10    18    20    1
    11    18     1    1
    12    10     9    2
    13    13    14    2
    14    20    25   ar
    15     3     4   ar
    16     3     2   ar
    17     4     5   ar
    18     9    11    1
    19     9     8    1
    20    23    26    1
    21    23    24   ar
    22     1     2    1
    23    26    27    2
    24     2     7   ar
    25    25    24   ar
    26     5     8    1
    27     5     6   ar
    28    32    29    1
    29    27    29    1
    30    27    28    1
    31     7     6   ar
    32    29    33    1
    33    30    28    1
    34    28    31    1
@<TRIPOS>MOLECULE
./../dock_file/temp/c85520a79fe3252f1e64fbd1fbc05b38/Camostat_Ligand_CID_2536:hmTMPRSS5:20230414003128/Camostat_Ligand_CID_2536:hmTMPRSS5_out_3.pdbqt
 33 34 0 0 0
SMALL
GASTEIGER

@<TRIPOS>ATOM
      1  O         11.7090   -2.4930    5.2930 O.3     1  LIG1       -0.2750
      2  C         12.9980   -2.1470    5.0260 C.ar    1  LIG1        0.0790
      3  C         13.6780   -1.2760    5.8780 C.ar    1  LIG1        0.0380
      4  C         14.9980   -0.9210    5.6050 C.ar    1  LIG1        0.0100
      5  C         15.6400   -1.4380    4.4790 C.ar    1  LIG1       -0.0490
      6  C         14.9610   -2.3090    3.6270 C.ar    1  LIG1        0.0100
      7  C         13.6400   -2.6640    3.9010 C.ar    1  LIG1        0.0380
      8  C         17.0670   -1.0550    4.1830 C.3     1  LIG1        0.1490
      9  C         17.7100   -0.2670    5.3000 C.2     1  LIG1        0.2630
     10  O         17.8240   -0.6430    6.4590 O.2     1  LIG1       -0.2650
     11  O         18.1490    0.9420    4.8150 O.3     1  LIG1       -0.3120
     12  C         19.1660    0.8900    3.8370 C.3     1  LIG1        0.2810
     13  C         20.2720    1.8580    4.2000 C.2     1  LIG1        0.2430
     14  O         20.7990    1.7680    5.3130 O.2     1  LIG1       -0.2710
     15  N         20.6410    2.8010    3.2400 N.am    1  LIG1       -0.3590
     16  C         20.0530    2.9290    1.9090 C.3     1  LIG1        0.1520
     17  C         21.7070    3.7490    3.5400 C.3     1  LIG1        0.1520
     18  C         10.7960   -2.1150    4.3060 C.2     1  LIG1        0.2980
     19  O         10.4650   -2.7920    3.3440 O.2     1  LIG1       -0.2590
     20  C         10.2710   -0.7490    4.5570 C.ar    1  LIG1        0.0400
     21  C          9.9430   -0.3550    5.8540 C.ar    1  LIG1        0.0200
     22  C          9.4510    0.9280    6.0890 C.ar    1  LIG1        0.0330
     23  C          9.2850    1.8180    5.0280 C.ar    1  LIG1        0.0750
     24  C          9.6130    1.4250    3.7310 C.ar    1  LIG1        0.0330
     25  C         10.1060    0.1410    3.4950 C.ar    1  LIG1        0.0200
     26  N          8.7910    3.1050    5.2650 N.pl3   1  LIG1       -0.0660
     27  C          9.6400    4.0960    5.3960 C.cat   1  LIG1        0.6920
     28  N         11.0150    4.0310    5.3270 N.pl3   1  LIG1       -0.2330
     29  N          9.1950    5.3760    5.6290 N.pl3   1  LIG1       -0.2330
     30  H         11.4600    3.1690    5.1650 H       1  LIG1        0.1740
     31  H         11.5520    4.8490    5.4430 H       1  LIG1        0.1740
     32  H          8.2310    5.5570    5.6990 H       1  LIG1        0.1740
     33  H          9.8430    6.1120    5.7250 H       1  LIG1        0.1740
@<TRIPOS>BOND
     1    16    15    1
     2    15    17    1
     3    15    13   am
     4    19    18    2
     5    25    24   ar
     6    25    20   ar
     7     6     7   ar
     8     6     5   ar
     9    24    23   ar
    10    12    13    1
    11    12    11    1
    12     7     2   ar
    13     8     5    1
    14     8     9    1
    15    13    14    2
    16    18    20    1
    17    18     1    1
    18     5     4   ar
    19    20    21   ar
    20    11     9    1
    21     2     1    1
    22     2     3   ar
    23    23    26    1
    24    23    22   ar
    25    30    28    1
    26    26    27    2
    27     9    10    2
    28    28    27    1
    29    28    31    1
    30    27    29    1
    31     4     3   ar
    32    29    32    1
    33    29    33    1
    34    21    22   ar
@<TRIPOS>MOLECULE
./../dock_file/temp/c85520a79fe3252f1e64fbd1fbc05b38/Camostat_Ligand_CID_2536:hmTMPRSS5:20230414003128/Camostat_Ligand_CID_2536:hmTMPRSS5_out_3.pdbqt
 33 34 0 0 0
SMALL
GASTEIGER

@<TRIPOS>ATOM
      1  O         12.0720   -1.1670    5.9040 O.3     1  LIG1       -0.2750
      2  C         10.9640   -0.6760    5.2850 C.ar    1  LIG1        0.0790
      3  C         11.0600   -0.1470    3.9970 C.ar    1  LIG1        0.0380
      4  C          9.9240    0.3560    3.3640 C.ar    1  LIG1        0.0100
      5  C          8.6910    0.3300    4.0160 C.ar    1  LIG1       -0.0490
      6  C          8.5960   -0.1990    5.3040 C.ar    1  LIG1        0.0100
      7  C          9.7320   -0.7020    5.9380 C.ar    1  LIG1        0.0380
      8  C          7.4640    0.8730    3.3320 C.3     1  LIG1        0.1490
      9  C          6.3360   -0.1290    3.2630 C.2     1  LIG1        0.2630
     10  O          5.3530   -0.1400    3.9920 O.2     1  LIG1       -0.2650
     11  O          6.5810   -1.0290    2.2540 O.3     1  LIG1       -0.3120
     12  C          5.4730   -1.3890    1.4560 C.3     1  LIG1        0.2810
     13  C          5.2770   -2.8900    1.5060 C.2     1  LIG1        0.2430
     14  O          4.5230   -3.3620    2.3620 O.2     1  LIG1       -0.2710
     15  N          5.9610   -3.6600    0.5640 N.am    1  LIG1       -0.3590
     16  C          6.8490   -3.1380   -0.4720 C.3     1  LIG1        0.1520
     17  C          5.7970   -5.1080    0.5680 C.3     1  LIG1        0.1520
     18  C         12.8210   -2.0510    5.1240 C.2     1  LIG1        0.2980
     19  O         12.3890   -3.0440    4.5580 O.2     1  LIG1       -0.2590
     20  C         14.2490   -1.6440    5.0750 C.ar    1  LIG1        0.0400
     21  C         14.7950   -0.8920    6.1140 C.ar    1  LIG1        0.0200
     22  C         16.1360   -0.5100    6.0670 C.ar    1  LIG1        0.0330
     23  C         16.9300   -0.8790    4.9810 C.ar    1  LIG1        0.0750
     24  C         16.3830   -1.6310    3.9420 C.ar    1  LIG1        0.0330
     25  C         15.0420   -2.0130    3.9880 C.ar    1  LIG1        0.0200
     26  N         18.2740   -0.4950    4.9350 N.pl3   1  LIG1       -0.0660
     27  C         18.6100    0.5530    4.2220 C.cat   1  LIG1        0.6920
     28  N         17.7750    1.3610    3.4810 N.pl3   1  LIG1       -0.2330
     29  N         19.9210    0.9630    4.1510 N.pl3   1  LIG1       -0.2330
     30  H         16.8100    1.1730    3.4490 H       1  LIG1        0.1740
     31  H         18.1450    2.1250    2.9820 H       1  LIG1        0.1740
     32  H         20.6180    0.4690    4.6380 H       1  LIG1        0.1740
     33  H         20.1600    1.7520    3.6120 H       1  LIG1        0.1740
@<TRIPOS>BOND
     1    16    15    1
     2    15    17    1
     3    15    13   am
     4    12    13    1
     5    12    11    1
     6    13    14    2
     7    11     9    1
     8    31    28    1
     9     9     8    1
    10     9    10    2
    11     8     5    1
    12     4     3   ar
    13     4     5   ar
    14    30    28    1
    15    28    27    1
    16    33    29    1
    17    24    25   ar
    18    24    23   ar
    19    25    20   ar
    20     3     2   ar
    21     5     6   ar
    22    29    27    1
    23    29    32    1
    24    27    26    2
    25    19    18    2
    26    26    23    1
    27    23    22   ar
    28    20    18    1
    29    20    21   ar
    30    18     1    1
    31     2     1    1
    32     2     7   ar
    33     6     7   ar
    34    22    21   ar
@<TRIPOS>MOLECULE
./../dock_file/temp/c85520a79fe3252f1e64fbd1fbc05b38/Camostat_Ligand_CID_2536:hmTMPRSS5:20230414003128/Camostat_Ligand_CID_2536:hmTMPRSS5_out_3.pdbqt
 33 34 0 0 0
SMALL
GASTEIGER

@<TRIPOS>ATOM
      1  O         11.4340   -1.6130    3.6940 O.3     1  LIG1       -0.2750
      2  C         10.9870   -0.4930    4.3240 C.ar    1  LIG1        0.0790
      3  C          9.9640   -0.5830    5.2680 C.ar    1  LIG1        0.0380
      4  C          9.5070    0.5650    5.9120 C.ar    1  LIG1        0.0100
      5  C         10.0720    1.8060    5.6140 C.ar    1  LIG1       -0.0490
      6  C         11.0950    1.8960    4.6700 C.ar    1  LIG1        0.0100
      7  C         11.5530    0.7470    4.0250 C.ar    1  LIG1        0.0380
      8  C          9.5780    3.0470    6.3100 C.3     1  LIG1        0.1490
      9  C          9.1570    4.1340    5.3490 C.2     1  LIG1        0.2630
     10  O          9.7940    5.1490    5.1040 O.2     1  LIG1       -0.2650
     11  O          7.9460    3.8060    4.7870 O.3     1  LIG1       -0.3120
     12  C          7.8850    3.8280    3.3770 C.3     1  LIG1        0.2810
     13  C          7.4020    2.4860    2.8670 C.2     1  LIG1        0.2430
     14  O          8.2310    1.5930    2.6720 O.2     1  LIG1       -0.2710
     15  N          6.0310    2.3350    2.6550 N.am    1  LIG1       -0.3590
     16  C          5.0190    3.3620    2.8890 C.3     1  LIG1        0.1520
     17  C          5.5180    1.0590    2.1740 C.3     1  LIG1        0.1520
     18  C         12.1750   -2.4730    4.5090 C.2     1  LIG1        0.2980
     19  O         11.7420   -3.4620    5.0810 O.2     1  LIG1       -0.2590
     20  C         13.5870   -2.0250    4.6160 C.ar    1  LIG1        0.0400
     21  C         14.4960   -2.3360    3.6050 C.ar    1  LIG1        0.0200
     22  C         15.8220   -1.9150    3.7050 C.ar    1  LIG1        0.0330
     23  C         16.2400   -1.1840    4.8160 C.ar    1  LIG1        0.0750
     24  C         15.3310   -0.8730    5.8280 C.ar    1  LIG1        0.0330
     25  C         14.0050   -1.2940    5.7280 C.ar    1  LIG1        0.0200
     26  N         17.5690   -0.7620    4.9170 N.pl3   1  LIG1       -0.0660
     27  C         17.9240    0.3590    4.3350 C.cat   1  LIG1        0.6920
     28  N         17.1230    1.2110    3.6060 N.pl3   1  LIG1       -0.2330
     29  N         19.2220    0.8090    4.4100 N.pl3   1  LIG1       -0.2330
     30  H         16.1710    1.0010    3.4770 H       1  LIG1        0.1740
     31  H         17.5050    2.0290    3.2130 H       1  LIG1        0.1740
     32  H         19.8950    0.2890    4.9040 H       1  LIG1        0.1740
     33  H         19.4760    1.6520    3.9690 H       1  LIG1        0.1740
@<TRIPOS>BOND
     1    17    15    1
     2    15    13   am
     3    15    16    1
     4    14    13    2
     5    13    12    1
     6    31    28    1
     7    12    11    1
     8    30    28    1
     9    21    22   ar
    10    21    20   ar
    11    28    27    1
    12     1     2    1
    13     1    18    1
    14    22    23   ar
    15    33    29    1
    16     7     2   ar
    17     7     6   ar
    18     2     3   ar
    19    27    29    1
    20    27    26    2
    21    29    32    1
    22    18    20    1
    23    18    19    2
    24    20    25   ar
    25     6     5   ar
    26    11     9    1
    27    23    26    1
    28    23    24   ar
    29    10     9    2
    30     3     4   ar
    31     9     8    1
    32     5     4   ar
    33     5     8    1
    34    25    24   ar
@<TRIPOS>MOLECULE
./../dock_file/temp/c85520a79fe3252f1e64fbd1fbc05b38/Camostat_Ligand_CID_2536:hmTMPRSS5:20230414003128/Camostat_Ligand_CID_2536:hmTMPRSS5_out_3.pdbqt
 33 34 0 0 0
SMALL
GASTEIGER

@<TRIPOS>ATOM
      1  O         11.8790   -2.6080    5.1880 O.3     1  LIG1       -0.2750
      2  C         13.0690   -1.9850    4.9680 C.ar    1  LIG1        0.0790
      3  C         13.6200   -1.1660    5.9530 C.ar    1  LIG1        0.0380
      4  C         14.8390   -0.5270    5.7270 C.ar    1  LIG1        0.0100
      5  C         15.5080   -0.7090    4.5160 C.ar    1  LIG1       -0.0490
      6  C         14.9560   -1.5280    3.5310 C.ar    1  LIG1        0.0100
      7  C         13.7370   -2.1670    3.7570 C.ar    1  LIG1        0.0380
      8  C         16.8250   -0.0190    4.2720 C.3     1  LIG1        0.1490
      9  C         17.8850   -0.3990    5.2790 C.2     1  LIG1        0.2630
     10  O         18.2660    0.3020    6.2060 O.2     1  LIG1       -0.2650
     11  O         18.3570   -1.6590    4.9950 O.3     1  LIG1       -0.3120
     12  C         18.7030   -1.9070    3.6480 C.3     1  LIG1        0.2810
     13  C         20.1090   -1.4110    3.3840 C.2     1  LIG1        0.2430
     14  O         21.0020   -1.7040    4.1830 O.2     1  LIG1       -0.2710
     15  N         20.3160   -0.6490    2.2320 N.am    1  LIG1       -0.3590
     16  C         19.2880   -0.2950    1.2560 C.3     1  LIG1        0.1520
     17  C         21.6530   -0.1570    1.9300 C.3     1  LIG1        0.1520
     18  C         10.8810   -2.2830    4.2670 C.2     1  LIG1        0.2980
     19  O         10.4950   -2.9950    3.3530 O.2     1  LIG1       -0.2590
     20  C         10.3370   -0.9250    4.5250 C.ar    1  LIG1        0.0400
     21  C         10.2770    0.0100    3.4910 C.ar    1  LIG1        0.0200
     22  C          9.7660    1.2850    3.7330 C.ar    1  LIG1        0.0330
     23  C          9.3160    1.6260    5.0080 C.ar    1  LIG1        0.0750
     24  C          9.3760    0.6910    6.0430 C.ar    1  LIG1        0.0330
     25  C          9.8870   -0.5840    5.8010 C.ar    1  LIG1        0.0200
     26  N          8.8030    2.9050    5.2510 N.pl3   1  LIG1       -0.0660
     27  C          9.6390    3.9000    5.4230 C.cat   1  LIG1        0.6920
     28  N         11.0160    3.8480    5.3940 N.pl3   1  LIG1       -0.2330
     29  N          9.1760    5.1730    5.6630 N.pl3   1  LIG1       -0.2330
     30  H         11.4730    2.9930    5.2310 H       1  LIG1        0.1740
     31  H         11.5420    4.6690    5.5390 H       1  LIG1        0.1740
     32  H          8.2090    5.3440    5.7070 H       1  LIG1        0.1740
     33  H          9.8140    5.9120    5.7900 H       1  LIG1        0.1740
@<TRIPOS>BOND
     1    16    15    1
     2    17    15    1
     3    15    13   am
     4    19    18    2
     5    13    12    1
     6    13    14    2
     7    21    22   ar
     8    21    20   ar
     9     6     7   ar
    10     6     5   ar
    11    12    11    1
    12    22    23   ar
    13     7     2   ar
    14    18    20    1
    15    18     1    1
    16     8     5    1
    17     8     9    1
    18     5     4   ar
    19    20    25   ar
    20     2     1    1
    21     2     3   ar
    22    11     9    1
    23    23    26    1
    24    23    24   ar
    25    30    28    1
    26    26    27    2
    27     9    10    2
    28    28    27    1
    29    28    31    1
    30    27    29    1
    31    29    32    1
    32    29    33    1
    33     4     3   ar
    34    25    24   ar
@<TRIPOS>MOLECULE
./../dock_file/temp/c85520a79fe3252f1e64fbd1fbc05b38/Camostat_Ligand_CID_2536:hmTMPRSS5:20230414003128/Camostat_Ligand_CID_2536:hmTMPRSS5_out_3.pdbqt
 33 34 0 0 0
SMALL
GASTEIGER

@<TRIPOS>ATOM
      1  O         11.1320   -0.4020    4.1190 O.3     1  LIG1       -0.2750
      2  C         12.3910   -0.3280    4.6310 C.ar    1  LIG1        0.0790
      3  C         13.1690    0.8080    4.4090 C.ar    1  LIG1        0.0380
      4  C         14.4580    0.8840    4.9330 C.ar    1  LIG1        0.0100
      5  C         14.9700   -0.1760    5.6820 C.ar    1  LIG1       -0.0490
      6  C         14.1920   -1.3120    5.9040 C.ar    1  LIG1        0.0100
      7  C         12.9020   -1.3880    5.3790 C.ar    1  LIG1        0.0380
      8  C         16.3640   -0.0950    6.2500 C.3     1  LIG1        0.1490
      9  C         17.4350   -0.1130    5.1850 C.2     1  LIG1        0.2630
     10  O         17.9960    0.8730    4.7270 O.2     1  LIG1       -0.2650
     11  O         17.6860   -1.4110    4.8080 O.3     1  LIG1       -0.3120
     12  C         17.7100   -1.6640    3.4190 C.3     1  LIG1        0.2810
     13  C         16.3210   -2.0390    2.9460 C.2     1  LIG1        0.2430
     14  O         15.8380   -3.1130    3.3140 O.2     1  LIG1       -0.2710
     15  N         15.6570   -1.1320    2.1180 N.am    1  LIG1       -0.3590
     16  C         16.1890    0.1540    1.6720 C.3     1  LIG1        0.1520
     17  C         14.3150   -1.4440    1.6440 C.3     1  LIG1        0.1520
     18  C         10.1200   -0.1140    5.0370 C.2     1  LIG1        0.2980
     19  O          9.6230   -0.9070    5.8220 O.2     1  LIG1       -0.2590
     20  C          9.6930    1.3050    4.9360 C.ar    1  LIG1        0.0400
     21  C          9.2510    1.8140    3.7150 C.ar    1  LIG1        0.0200
     22  C          8.8490    3.1470    3.6200 C.ar    1  LIG1        0.0330
     23  C          8.8910    3.9700    4.7450 C.ar    1  LIG1        0.0750
     24  C          9.3340    3.4610    5.9660 C.ar    1  LIG1        0.0330
     25  C          9.7350    2.1280    6.0610 C.ar    1  LIG1        0.0200
     26  N          8.4880    5.3070    4.6500 N.pl3   1  LIG1       -0.0660
     27  C          9.4060    6.2420    4.5850 C.cat   1  LIG1        0.6920
     28  N         10.7730    6.0720    4.5990 N.pl3   1  LIG1       -0.2330
     29  N          9.0520    7.5670    4.4900 N.pl3   1  LIG1       -0.2330
     30  H         11.1560    5.1680    4.6650 H       1  LIG1        0.1740
     31  H         11.3670    6.8560    4.5450 H       1  LIG1        0.1740
     32  H          8.1020    7.8230    4.4690 H       1  LIG1        0.1740
     33  H          9.7500    8.2600    4.4410 H       1  LIG1        0.1740
@<TRIPOS>BOND
     1    17    15    1
     2    16    15    1
     3    15    13   am
     4    13    14    2
     5    13    12    1
     6    12    11    1
     7    22    21   ar
     8    22    23   ar
     9    21    20   ar
    10     1     2    1
    11     1    18    1
    12     3     2   ar
    13     3     4   ar
    14    33    29    1
    15    32    29    1
    16    29    27    1
    17    31    28    1
    18    27    28    1
    19    27    26    2
    20    28    30    1
    21     2     7   ar
    22    26    23    1
    23    10     9    2
    24    23    24   ar
    25    11     9    1
    26     4     5   ar
    27    20    18    1
    28    20    25   ar
    29    18    19    2
    30     9     8    1
    31     7     6   ar
    32     5     6   ar
    33     5     8    1
    34    24    25   ar
@<TRIPOS>MOLECULE
./../dock_file/temp/c85520a79fe3252f1e64fbd1fbc05b38/Camostat_Ligand_CID_2536:hmTMPRSS5:20230414003128/Camostat_Ligand_CID_2536:hmTMPRSS5_out_3.pdbqt
 33 34 0 0 0
SMALL
GASTEIGER

@<TRIPOS>ATOM
      1  O         12.0900   -1.4220    5.9370 O.3     1  LIG1       -0.2750
      2  C         11.2440   -0.5280    5.3580 C.ar    1  LIG1        0.0790
      3  C          9.8830   -0.8190    5.2560 C.ar    1  LIG1        0.0380
      4  C          9.0170    0.0980    4.6630 C.ar    1  LIG1        0.0100
      5  C          9.5090    1.3080    4.1720 C.ar    1  LIG1       -0.0490
      6  C         10.8700    1.5990    4.2750 C.ar    1  LIG1        0.0100
      7  C         11.7370    0.6810    4.8680 C.ar    1  LIG1        0.0380
      8  C          8.5730    2.2990    3.5310 C.3     1  LIG1        0.1490
      9  C          7.5540    1.6470    2.6260 C.2     1  LIG1        0.2630
     10  O          7.8060    1.0560    1.5850 O.2     1  LIG1       -0.2650
     11  O          6.2960    1.8170    3.1540 O.3     1  LIG1       -0.3120
     12  C          5.4420    0.6940    3.1080 C.3     1  LIG1        0.2810
     13  C          3.9990    1.1490    3.1500 C.2     1  LIG1        0.2430
     14  O          3.5210    1.5080    4.2300 O.2     1  LIG1       -0.2710
     15  N          3.2880    1.1440    1.9490 N.am    1  LIG1       -0.3590
     16  C          3.8230    0.7410    0.6510 C.3     1  LIG1        0.1520
     17  C          1.8980    1.5820    1.9380 C.3     1  LIG1        0.1520
     18  C         12.8380   -2.1760    5.0300 C.2     1  LIG1        0.2980
     19  O         12.4140   -3.0970    4.3480 O.2     1  LIG1       -0.2590
     20  C         14.2530   -1.7280    5.0000 C.ar    1  LIG1        0.0400
     21  C         15.0690   -2.0650    3.9200 C.ar    1  LIG1        0.0200
     22  C         16.3980   -1.6430    3.8920 C.ar    1  LIG1        0.0330
     23  C         16.9120   -0.8850    4.9440 C.ar    1  LIG1        0.0750
     24  C         16.0970   -0.5480    6.0240 C.ar    1  LIG1        0.0330
     25  C         14.7680   -0.9700    6.0530 C.ar    1  LIG1        0.0200
     26  N         18.2460   -0.4620    4.9150 N.pl3   1  LIG1       -0.0660
     27  C         18.5600    0.5940    4.2050 C.cat   1  LIG1        0.6920
     28  N         17.7120    1.3750    3.4490 N.pl3   1  LIG1       -0.2330
     29  N         19.8590    1.0420    4.1500 N.pl3   1  LIG1       -0.2330
     30  H         16.7540    1.1590    3.4040 H       1  LIG1        0.1740
     31  H         18.0670    2.1490    2.9540 H       1  LIG1        0.1740
     32  H         20.5640    0.5700    4.6490 H       1  LIG1        0.1740
     33  H         20.0830    1.8370    3.6130 H       1  LIG1        0.1740
@<TRIPOS>BOND
     1    16    15    1
     2    10     9    2
     3    17    15    1
     4    15    13   am
     5     9    11    1
     6     9     8    1
     7    31    28    1
     8    12    13    1
     9    12    11    1
    10    13    14    2
    11    30    28    1
    12    28    27    1
    13     8     5    1
    14    33    29    1
    15    22    21   ar
    16    22    23   ar
    17    21    20   ar
    18    29    27    1
    19    29    32    1
    20     5     6   ar
    21     5     4   ar
    22    27    26    2
    23     6     7   ar
    24    19    18    2
    25     4     3   ar
    26     7     2   ar
    27    26    23    1
    28    23    24   ar
    29    20    18    1
    30    20    25   ar
    31    18     1    1
    32     3     2   ar
    33     2     1    1
    34    24    25   ar
@<TRIPOS>MOLECULE
./../dock_file/temp/c85520a79fe3252f1e64fbd1fbc05b38/Camostat_Ligand_CID_2536:hmTMPRSS5:20230414003128/Camostat_Ligand_CID_2536:hmTMPRSS5_out_3.pdbqt
 33 34 0 0 0
SMALL
GASTEIGER

@<TRIPOS>ATOM
      1  O          7.9480    4.7230    4.6530 O.3     1  LIG1       -0.2750
      2  C          9.0390    3.9120    4.7260 C.ar    1  LIG1        0.0790
      3  C          9.4490    3.4020    5.9580 C.ar    1  LIG1        0.0380
      4  C         10.5660    2.5720    6.0330 C.ar    1  LIG1        0.0100
      5  C         11.2750    2.2500    4.8750 C.ar    1  LIG1       -0.0490
      6  C         10.8650    2.7610    3.6420 C.ar    1  LIG1        0.0100
      7  C          9.7470    3.5910    3.5680 C.ar    1  LIG1        0.0380
      8  C         12.4830    1.3540    4.9550 C.3     1  LIG1        0.1490
      9  C         12.1850   -0.0730    4.5570 C.2     1  LIG1        0.2630
     10  O         12.7060   -0.6740    3.6280 O.2     1  LIG1       -0.2650
     11  O         11.2350   -0.5960    5.4020 O.3     1  LIG1       -0.3120
     12  C         10.2100   -1.3550    4.7970 C.3     1  LIG1        0.2810
     13  C          8.9740   -0.4970    4.6260 C.2     1  LIG1        0.2430
     14  O          8.3370   -0.1680    5.6300 O.2     1  LIG1       -0.2710
     15  N          8.6300   -0.1160    3.3280 N.am    1  LIG1       -0.3590
     16  C          9.3680   -0.4730    2.1180 C.3     1  LIG1        0.1520
     17  C          7.4540    0.7170    3.1140 C.3     1  LIG1        0.1520
     18  C          8.2100    6.0660    4.9350 C.2     1  LIG1        0.2980
     19  O          9.2690    6.6420    4.7390 O.2     1  LIG1       -0.2590
     20  C          7.0220    6.7290    5.5320 C.ar    1  LIG1        0.0400
     21  C          7.1640    7.9470    6.1950 C.ar    1  LIG1        0.0200
     22  C          6.0490    8.5700    6.7550 C.ar    1  LIG1        0.0330
     23  C          4.7920    7.9750    6.6530 C.ar    1  LIG1        0.0750
     24  C          4.6500    6.7560    5.9890 C.ar    1  LIG1        0.0330
     25  C          5.7650    6.1320    5.4290 C.ar    1  LIG1        0.0200
     26  N          3.6730    8.5990    7.2140 N.pl3   1  LIG1       -0.0660
     27  C          3.3760    8.3570    8.4680 C.cat   1  LIG1        0.6920
     28  N          4.0500    7.5320    9.3420 N.pl3   1  LIG1       -0.2330
     29  N          2.2850    8.9520    9.0580 N.pl3   1  LIG1       -0.2330
     30  H          4.8510    7.0460    9.0420 H       1  LIG1        0.1740
     31  H          3.7280    7.4280   10.2680 H       1  LIG1        0.1740
     32  H          1.7180    9.5660    8.5390 H       1  LIG1        0.1740
     33  H          2.0720    8.7620   10.0010 H       1  LIG1        0.1740
@<TRIPOS>BOND
     1    16    15    1
     2    17    15    1
     3    15    13   am
     4     7     6   ar
     5     7     2   ar
     6    10     9    2
     7     6     5   ar
     8     9     8    1
     9     9    11    1
    10    13    12    1
    11    13    14    2
    12     1     2    1
    13     1    18    1
    14     2     3   ar
    15    19    18    2
    16    12    11    1
    17     5     8    1
    18     5     4   ar
    19    18    20    1
    20    25    20   ar
    21    25    24   ar
    22    20    21   ar
    23     3     4   ar
    24    24    23   ar
    25    21    22   ar
    26    23    22   ar
    27    23    26    1
    28    26    27    2
    29    27    29    1
    30    27    28    1
    31    32    29    1
    32    30    28    1
    33    29    33    1
    34    28    31    1
@<TRIPOS>MOLECULE
./../dock_file/temp/c85520a79fe3252f1e64fbd1fbc05b38/Camostat_Ligand_CID_2536:hmTMPRSS5:20230414003128/Camostat_Ligand_CID_2536:hmTMPRSS5_out_3.pdbqt
 33 34 0 0 0
SMALL
GASTEIGER

@<TRIPOS>ATOM
      1  O         11.5730   -0.6400    3.6080 O.3     1  LIG1       -0.2750
      2  C         12.7620   -0.4580    4.2450 C.ar    1  LIG1        0.0790
      3  C         13.1370   -1.3130    5.2810 C.ar    1  LIG1        0.0380
      4  C         14.3550   -1.1260    5.9330 C.ar    1  LIG1        0.0100
      5  C         15.1990   -0.0840    5.5490 C.ar    1  LIG1       -0.0490
      6  C         14.8240    0.7720    4.5130 C.ar    1  LIG1        0.0100
      7  C         13.6050    0.5840    3.8600 C.ar    1  LIG1        0.0380
      8  C         16.5160    0.1190    6.2530 C.3     1  LIG1        0.1490
      9  C         17.7040   -0.2730    5.4070 C.2     1  LIG1        0.2630
     10  O         18.1970   -1.3910    5.3520 O.2     1  LIG1       -0.2650
     11  O         18.1470    0.8220    4.7030 O.3     1  LIG1       -0.3120
     12  C         19.2550    0.6100    3.8540 C.3     1  LIG1        0.2810
     13  C         20.3380    1.6210    4.1680 C.2     1  LIG1        0.2430
     14  O         21.0120    1.4700    5.1910 O.2     1  LIG1       -0.2710
     15  N         20.5180    2.6720    3.2680 N.am    1  LIG1       -0.3590
     16  C         19.7520    2.8760    2.0400 C.3     1  LIG1        0.1520
     17  C         21.5540    3.6650    3.5230 C.3     1  LIG1        0.1520
     18  C         10.4530   -0.3170    4.3780 C.2     1  LIG1        0.2980
     19  O          9.6510   -1.1150    4.8400 O.2     1  LIG1       -0.2590
     20  C         10.3360    1.1520    4.5620 C.ar    1  LIG1        0.0400
     21  C         10.3150    1.6940    5.8470 C.ar    1  LIG1        0.0200
     22  C         10.2060    3.0730    6.0200 C.ar    1  LIG1        0.0330
     23  C         10.1160    3.9110    4.9090 C.ar    1  LIG1        0.0750
     24  C         10.1360    3.3690    3.6230 C.ar    1  LIG1        0.0330
     25  C         10.2460    1.9900    3.4500 C.ar    1  LIG1        0.0200
     26  N         10.0060    5.2950    5.0820 N.pl3   1  LIG1       -0.0660
     27  C          8.8170    5.8190    5.2580 C.cat   1  LIG1        0.6920
     28  N          7.6090    5.1560    5.2950 N.pl3   1  LIG1       -0.2330
     29  N          8.6660    7.1750    5.4330 N.pl3   1  LIG1       -0.2330
     30  H          7.5810    4.1790    5.1810 H       1  LIG1        0.1740
     31  H          6.7750    5.6610    5.4330 H       1  LIG1        0.1740
     32  H          9.4550    7.7630    5.4270 H       1  LIG1        0.1740
     33  H          7.7670    7.5560    5.5640 H       1  LIG1        0.1740
@<TRIPOS>BOND
     1    16    15    1
     2    15    17    1
     3    15    13   am
     4    25    24   ar
     5    25    20   ar
     6     1     2    1
     7     1    18    1
     8    24    23   ar
     9    12    13    1
    10    12    11    1
    11     7     2   ar
    12     7     6   ar
    13    13    14    2
    14     2     3   ar
    15    18    20    1
    16    18    19    2
    17     6     5   ar
    18    20    21   ar
    19    11     9    1
    20    23    26    1
    21    23    22   ar
    22    26    27    2
    23    30    28    1
    24    27    28    1
    25    27    29    1
    26     3     4   ar
    27    28    31    1
    28    10     9    2
    29     9     8    1
    30    32    29    1
    31    29    33    1
    32     5     4   ar
    33     5     8    1
    34    21    22   ar
