@<TRIPOS>MOLECULE
./../dock_file/temp/c85520a79fe3252f1e64fbd1fbc05b38/Camostat_Ligand_CID_2536:hmTMPRSS5:20230414003128/Camostat_Ligand_CID_2536:hmTMPRSS5_out_1.pdbqt
 33 34 0 0 0
SMALL
GASTEIGER

@<TRIPOS>ATOM
      1  O         18.9400    7.1290   34.5090 O.3     1  LIG1       -0.2750
      2  C         19.8760    6.3730   33.8740 C.ar    1  LIG1        0.0790
      3  C         21.1700    6.2850   34.3890 C.ar    1  LIG1        0.0380
      4  C         22.1280    5.5100   33.7380 C.ar    1  LIG1        0.0100
      5  C         21.7950    4.8210   32.5720 C.ar    1  LIG1       -0.0490
      6  C         20.5010    4.9090   32.0560 C.ar    1  LIG1        0.0100
      7  C         19.5420    5.6850   32.7080 C.ar    1  LIG1        0.0380
      8  C         22.8310    3.9840   31.8680 C.3     1  LIG1        0.1490
      9  C         23.4820    4.7030   30.7090 C.2     1  LIG1        0.2630
     10  O         23.6520    5.9120   30.6310 O.2     1  LIG1       -0.2650
     11  O         23.8560    3.7890   29.7530 O.3     1  LIG1       -0.3120
     12  C         22.8180    3.0110   29.1940 C.3     1  LIG1        0.2810
     13  C         22.2750    3.7000   27.9590 C.2     1  LIG1        0.2430
     14  O         23.0710    4.1870   27.1520 O.2     1  LIG1       -0.2710
     15  N         20.8890    3.7360   27.8010 N.am    1  LIG1       -0.3590
     16  C         19.9160    3.1580   28.7260 C.3     1  LIG1        0.1520
     17  C         20.3180    4.3800   26.6250 C.3     1  LIG1        0.1520
     18  C         18.5450    6.6290   35.7530 C.2     1  LIG1        0.2980
     19  O         18.9610    7.0070   36.8370 O.2     1  LIG1       -0.2590
     20  C         17.5430    5.5440   35.6000 C.ar    1  LIG1        0.0400
     21  C         17.9100    4.2190   35.8350 C.ar    1  LIG1        0.0200
     22  C         16.9690    3.1990   35.6920 C.ar    1  LIG1        0.0330
     23  C         15.6620    3.5040   35.3140 C.ar    1  LIG1        0.0750
     24  C         15.2950    4.8290   35.0780 C.ar    1  LIG1        0.0330
     25  C         16.2360    5.8490   35.2210 C.ar    1  LIG1        0.0200
     26  N         14.7180    2.4810   35.1700 N.pl3   1  LIG1       -0.0660
     27  C         14.5370    1.9480   33.9860 C.cat   1  LIG1        0.6920
     28  N         15.1820    2.2780   32.8140 N.pl3   1  LIG1       -0.2330
     29  N         13.6190    0.9400   33.8030 N.pl3   1  LIG1       -0.2330
     30  H         15.8640    2.9870   32.8100 H       1  LIG1        0.1740
     31  H         14.9590    1.8050   31.9790 H       1  LIG1        0.1740
     32  H         13.0910    0.6110   34.5650 H       1  LIG1        0.1740
     33  H         13.4920    0.5470   32.9080 H       1  LIG1        0.1740
@<TRIPOS>BOND
     1    17    15    1
     2    14    13    2
     3    15    13   am
     4    15    16    1
     5    13    12    1
     6    12    11    1
     7    11     9    1
     8    10     9    2
     9     9     8    1
    10     8     5    1
    11    31    28    1
    12     6     5   ar
    13     6     7   ar
    14     5     4   ar
    15     7     2   ar
    16    30    28    1
    17    28    27    1
    18    33    29    1
    19     4     3   ar
    20    29    27    1
    21    29    32    1
    22     2     3   ar
    23     2     1    1
    24    27    26    2
    25     1    18    1
    26    24    25   ar
    27    24    23   ar
    28    26    23    1
    29    25    20   ar
    30    23    22   ar
    31    20    18    1
    32    20    21   ar
    33    22    21   ar
    34    18    19    2
@<TRIPOS>MOLECULE
./../dock_file/temp/c85520a79fe3252f1e64fbd1fbc05b38/Camostat_Ligand_CID_2536:hmTMPRSS5:20230414003128/Camostat_Ligand_CID_2536:hmTMPRSS5_out_1.pdbqt
 33 34 0 0 0
SMALL
GASTEIGER

@<TRIPOS>ATOM
      1  O         19.5060    6.9540   34.6480 O.3     1  LIG1       -0.2750
      2  C         20.1570    6.1850   33.7330 C.ar    1  LIG1        0.0790
      3  C         21.5250    5.9440   33.8700 C.ar    1  LIG1        0.0380
      4  C         22.1920    5.1570   32.9330 C.ar    1  LIG1        0.0100
      5  C         21.4920    4.6080   31.8580 C.ar    1  LIG1       -0.0490
      6  C         20.1250    4.8480   31.7210 C.ar    1  LIG1        0.0100
      7  C         19.4570    5.6370   32.6590 C.ar    1  LIG1        0.0380
      8  C         22.2130    3.7560   30.8450 C.3     1  LIG1        0.1490
      9  C         21.9000    4.1460   29.4190 C.2     1  LIG1        0.2630
     10  O         22.2110    5.2030   28.8900 O.2     1  LIG1       -0.2650
     11  O         21.2120    3.1260   28.8050 O.3     1  LIG1       -0.3120
     12  C         21.0790    1.9300   29.5430 C.3     1  LIG1        0.2810
     13  C         19.6130    1.5790   29.6830 C.2     1  LIG1        0.2430
     14  O         18.7910    2.1700   28.9780 O.2     1  LIG1       -0.2710
     15  N         19.2750    0.5890   30.6070 N.am    1  LIG1       -0.3590
     16  C         20.2190   -0.1440   31.4480 C.3     1  LIG1        0.1520
     17  C         17.8770    0.2100   30.7710 C.3     1  LIG1        0.1520
     18  C         19.1650    6.2820   35.8240 C.2     1  LIG1        0.2980
     19  O         19.8000    6.3050   36.8670 O.2     1  LIG1       -0.2590
     20  C         17.9130    5.5020   35.6520 C.ar    1  LIG1        0.0400
     21  C         17.9290    4.1160   35.8060 C.ar    1  LIG1        0.0200
     22  C         16.7540    3.3830   35.6450 C.ar    1  LIG1        0.0330
     23  C         15.5620    4.0350   35.3290 C.ar    1  LIG1        0.0750
     24  C         15.5460    5.4210   35.1740 C.ar    1  LIG1        0.0330
     25  C         16.7220    6.1550   35.3360 C.ar    1  LIG1        0.0200
     26  N         14.3830    3.2990   35.1670 N.pl3   1  LIG1       -0.0660
     27  C         14.1300    2.7570   34.0000 C.cat   1  LIG1        0.6920
     28  N         14.9070    2.8200   32.8640 N.pl3   1  LIG1       -0.2330
     29  N         12.9820    2.0260   33.8000 N.pl3   1  LIG1       -0.2330
     30  H         15.7570    3.3150   32.8760 H       1  LIG1        0.1740
     31  H         14.6110    2.3700   32.0390 H       1  LIG1        0.1740
     32  H         12.3410    1.9050   34.5360 H       1  LIG1        0.1740
     33  H         12.8040    1.6230   32.9190 H       1  LIG1        0.1740
@<TRIPOS>BOND
     1    11     9    1
     2    11    12    1
     3    10     9    2
     4    14    13    2
     5     9     8    1
     6    12    13    1
     7    13    15   am
     8    15    17    1
     9    15    16    1
    10     8     5    1
    11     6     5   ar
    12     6     7   ar
    13     5     4   ar
    14    31    28    1
    15     7     2   ar
    16    28    30    1
    17    28    27    1
    18    33    29    1
    19     4     3   ar
    20     2     3   ar
    21     2     1    1
    22    29    27    1
    23    29    32    1
    24    27    26    2
    25     1    18    1
    26    26    23    1
    27    24    23   ar
    28    24    25   ar
    29    23    22   ar
    30    25    20   ar
    31    22    21   ar
    32    20    21   ar
    33    20    18    1
    34    18    19    2
@<TRIPOS>MOLECULE
./../dock_file/temp/c85520a79fe3252f1e64fbd1fbc05b38/Camostat_Ligand_CID_2536:hmTMPRSS5:20230414003128/Camostat_Ligand_CID_2536:hmTMPRSS5_out_1.pdbqt
 33 34 0 0 0
SMALL
GASTEIGER

@<TRIPOS>ATOM
      1  O         18.9490    7.2050   34.7640 O.3     1  LIG1       -0.2750
      2  C         19.7460    6.4880   33.9270 C.ar    1  LIG1        0.0790
      3  C         19.2240    5.9640   32.7430 C.ar    1  LIG1        0.0380
      4  C         20.0420    5.2290   31.8860 C.ar    1  LIG1        0.0100
      5  C         21.3820    5.0180   32.2100 C.ar    1  LIG1       -0.0490
      6  C         21.9040    5.5420   33.3930 C.ar    1  LIG1        0.0100
      7  C         21.0860    6.2770   34.2510 C.ar    1  LIG1        0.0380
      8  C         22.2660    4.2240   31.2840 C.3     1  LIG1        0.1490
      9  C         22.1850    2.7350   31.5250 C.2     1  LIG1        0.2630
     10  O         23.0090    2.0710   32.1400 O.2     1  LIG1       -0.2650
     11  O         21.0410    2.2370   30.9480 O.3     1  LIG1       -0.3120
     12  C         21.1690    1.7480   29.6300 C.3     1  LIG1        0.2810
     13  C         20.3220    2.5830   28.6930 C.2     1  LIG1        0.2430
     14  O         19.0930    2.5030   28.7720 O.2     1  LIG1       -0.2710
     15  N         20.9890    3.4110   27.7890 N.am    1  LIG1       -0.3590
     16  C         22.4400    3.5440   27.6750 C.3     1  LIG1        0.1520
     17  C         20.2170    4.2400   26.8730 C.3     1  LIG1        0.1520
     18  C         18.6150    6.5430   35.9480 C.2     1  LIG1        0.2980
     19  O         19.1150    6.7470   37.0440 O.2     1  LIG1       -0.2590
     20  C         17.5640    5.5210   35.7120 C.ar    1  LIG1        0.0400
     21  C         16.2860    5.9130   35.3160 C.ar    1  LIG1        0.0200
     22  C         15.2990    4.9530   35.0940 C.ar    1  LIG1        0.0330
     23  C         15.5900    3.6000   35.2690 C.ar    1  LIG1        0.0750
     24  C         16.8690    3.2070   35.6650 C.ar    1  LIG1        0.0330
     25  C         17.8560    4.1670   35.8870 C.ar    1  LIG1        0.0200
     26  N         14.6000    2.6370   35.0460 N.pl3   1  LIG1       -0.0660
     27  C         14.4300    2.1720   33.8320 C.cat   1  LIG1        0.6920
     28  N         15.1290    2.5250   32.6970 N.pl3   1  LIG1       -0.2330
     29  N         13.4680    1.2250   33.5710 N.pl3   1  LIG1       -0.2330
     30  H         15.8460    3.1960   32.7500 H       1  LIG1        0.1740
     31  H         14.9090    2.1050   31.8340 H       1  LIG1        0.1740
     32  H         12.8990    0.8880   34.2990 H       1  LIG1        0.1740
     33  H         13.3500    0.8840   32.6550 H       1  LIG1        0.1740
@<TRIPOS>BOND
     1    17    15    1
     2    16    15    1
     3    15    13   am
     4    13    14    2
     5    13    12    1
     6    12    11    1
     7    11     9    1
     8     8     9    1
     9     8     5    1
    10     9    10    2
    11    31    28    1
    12     4     5   ar
    13     4     3   ar
    14     5     6   ar
    15    33    29    1
    16    28    30    1
    17    28    27    1
    18     3     2   ar
    19     6     7   ar
    20    29    27    1
    21    29    32    1
    22    27    26    2
    23     2     7   ar
    24     2     1    1
    25     1    18    1
    26    26    23    1
    27    22    23   ar
    28    22    21   ar
    29    23    24   ar
    30    21    20   ar
    31    24    25   ar
    32    20    25   ar
    33    20    18    1
    34    18    19    2
@<TRIPOS>MOLECULE
./../dock_file/temp/c85520a79fe3252f1e64fbd1fbc05b38/Camostat_Ligand_CID_2536:hmTMPRSS5:20230414003128/Camostat_Ligand_CID_2536:hmTMPRSS5_out_1.pdbqt
 33 34 0 0 0
SMALL
GASTEIGER

@<TRIPOS>ATOM
      1  O         21.7370    5.0760   29.3630 O.3     1  LIG1       -0.2750
      2  C         21.0650    3.9270   29.6460 C.ar    1  LIG1        0.0790
      3  C         20.5240    3.1610   28.6130 C.ar    1  LIG1        0.0380
      4  C         19.8360    1.9840   28.9040 C.ar    1  LIG1        0.0100
      5  C         19.6890    1.5700   30.2280 C.ar    1  LIG1       -0.0490
      6  C         20.2300    2.3360   31.2610 C.ar    1  LIG1        0.0100
      7  C         20.9180    3.5140   30.9700 C.ar    1  LIG1        0.0380
      8  C         18.9460    0.2980   30.5420 C.3     1  LIG1        0.1490
      9  C         17.4960    0.3430   30.1180 C.2     1  LIG1        0.2630
     10  O         17.0440   -0.1420   29.0900 O.2     1  LIG1       -0.2650
     11  O         16.7600    1.0120   31.0660 O.3     1  LIG1       -0.3120
     12  C         15.4670    0.5070   31.3240 C.3     1  LIG1        0.2810
     13  C         14.7170    1.4640   32.2260 C.2     1  LIG1        0.2430
     14  O         14.4050    2.5740   31.7860 O.2     1  LIG1       -0.2710
     15  N         14.4110    1.0260   33.5150 N.am    1  LIG1       -0.3590
     16  C         14.7490   -0.2840   34.0670 C.3     1  LIG1        0.1520
     17  C         13.6830    1.9090   34.4180 C.3     1  LIG1        0.1520
     18  C         22.8530    4.9020   28.5410 C.2     1  LIG1        0.2980
     19  O         22.9620    5.3040   27.3920 O.2     1  LIG1       -0.2590
     20  C         23.9170    4.1350   29.2380 C.ar    1  LIG1        0.0400
     21  C         24.6210    4.7190   30.2900 C.ar    1  LIG1        0.0200
     22  C         25.6200    3.9990   30.9460 C.ar    1  LIG1        0.0330
     23  C         25.9150    2.6950   30.5480 C.ar    1  LIG1        0.0750
     24  C         25.2110    2.1110   29.4950 C.ar    1  LIG1        0.0330
     25  C         24.2120    2.8310   28.8400 C.ar    1  LIG1        0.0200
     26  N         26.9170    1.9730   31.2050 N.pl3   1  LIG1       -0.0660
     27  C         28.0370    1.7210   30.5700 C.cat   1  LIG1        0.6920
     28  N         28.3690    2.0910   29.2850 N.pl3   1  LIG1       -0.2330
     29  N         29.0460    1.0150   31.1810 N.pl3   1  LIG1       -0.2330
     30  H         27.7300    2.6020   28.7390 H       1  LIG1        0.1740
     31  H         29.2460    1.8420   28.9130 H       1  LIG1        0.1740
     32  H         28.9340    0.6930   32.1030 H       1  LIG1        0.1740
     33  H         29.8830    0.8320   30.6940 H       1  LIG1        0.1740
@<TRIPOS>BOND
     1    19    18    2
     2    18    20    1
     3    18     1    1
     4     3     4   ar
     5     3     2   ar
     6    30    28    1
     7    25    20   ar
     8    25    24   ar
     9     4     5   ar
    10    31    28    1
    11    10     9    2
    12    20    21   ar
    13    28    27    1
    14     1     2    1
    15    24    23   ar
    16     2     7   ar
    17     9     8    1
    18     9    11    1
    19     5     8    1
    20     5     6   ar
    21    21    22   ar
    22    23    22   ar
    23    23    26    1
    24    27    29    1
    25    27    26    2
    26    33    29    1
    27     7     6   ar
    28    11    12    1
    29    29    32    1
    30    12    13    1
    31    14    13    2
    32    13    15   am
    33    15    16    1
    34    15    17    1
@<TRIPOS>MOLECULE
./../dock_file/temp/c85520a79fe3252f1e64fbd1fbc05b38/Camostat_Ligand_CID_2536:hmTMPRSS5:20230414003128/Camostat_Ligand_CID_2536:hmTMPRSS5_out_1.pdbqt
 33 34 0 0 0
SMALL
GASTEIGER

@<TRIPOS>ATOM
      1  O         18.4750   17.3110   24.6930 O.3     1  LIG1       -0.2750
      2  C         18.9590   16.0910   25.0540 C.ar    1  LIG1        0.0790
      3  C         18.4900   15.4680   26.2100 C.ar    1  LIG1        0.0380
      4  C         18.9850   14.2180   26.5790 C.ar    1  LIG1        0.0100
      5  C         19.9490   13.5890   25.7910 C.ar    1  LIG1       -0.0490
      6  C         20.4180   14.2120   24.6340 C.ar    1  LIG1        0.0100
      7  C         19.9230   15.4630   24.2650 C.ar    1  LIG1        0.0380
      8  C         20.4850   12.2380   26.1890 C.3     1  LIG1        0.1490
      9  C         21.9700   12.2520   26.4670 C.2     1  LIG1        0.2630
     10  O         22.5850   13.1730   26.9840 O.2     1  LIG1       -0.2650
     11  O         22.5260   11.0660   26.0500 O.3     1  LIG1       -0.3120
     12  C         23.3350   11.1280   24.8940 C.3     1  LIG1        0.2810
     13  C         24.7940   11.1760   25.2970 C.2     1  LIG1        0.2430
     14  O         25.2410   10.2790   26.0160 O.2     1  LIG1       -0.2710
     15  N         25.5580   12.2400   24.8160 N.am    1  LIG1       -0.3590
     16  C         25.0690   13.3120   23.9510 C.3     1  LIG1        0.1520
     17  C         26.9690   12.3250   25.1690 C.3     1  LIG1        0.1520
     18  C         18.4110   17.5190   23.3130 C.2     1  LIG1        0.2980
     19  O         17.5800   17.0390   22.5580 O.2     1  LIG1       -0.2590
     20  C         19.5120   18.4040   22.8540 C.ar    1  LIG1        0.0400
     21  C         20.2170   19.1760   23.7760 C.ar    1  LIG1        0.0200
     22  C         21.2510   20.0070   23.3440 C.ar    1  LIG1        0.0330
     23  C         21.5800   20.0660   21.9900 C.ar    1  LIG1        0.0750
     24  C         20.8750   19.2940   21.0670 C.ar    1  LIG1        0.0330
     25  C         19.8400   18.4630   21.4990 C.ar    1  LIG1        0.0200
     26  N         22.6170   20.8990   21.5580 N.pl3   1  LIG1       -0.0660
     27  C         23.8300   20.4090   21.4730 C.cat   1  LIG1        0.6920
     28  N         24.2340   19.1250   21.7680 N.pl3   1  LIG1       -0.2330
     29  N         24.8770   21.1950   21.0520 N.pl3   1  LIG1       -0.2330
     30  H         23.5780   18.4620   22.0810 H       1  LIG1        0.1740
     31  H         25.1800   18.8710   21.6650 H       1  LIG1        0.1740
     32  H         24.7200   22.1350   20.8090 H       1  LIG1        0.1740
     33  H         25.7840   20.8150   20.9920 H       1  LIG1        0.1740
@<TRIPOS>BOND
     1    32    29    1
     2    33    29    1
     3    29    27    1
     4    24    25   ar
     5    24    23   ar
     6    27    26    2
     7    27    28    1
     8    25    20   ar
     9    26    23    1
    10    31    28    1
    11    28    30    1
    12    23    22   ar
    13    19    18    2
    14    20    18    1
    15    20    21   ar
    16    18     1    1
    17    22    21   ar
    18    16    15    1
    19     7     6   ar
    20     7     2   ar
    21     6     5   ar
    22     1     2    1
    23    15    17    1
    24    15    13   am
    25    12    13    1
    26    12    11    1
    27     2     3   ar
    28    13    14    2
    29     5     8    1
    30     5     4   ar
    31    11     9    1
    32     8     9    1
    33     3     4   ar
    34     9    10    2
@<TRIPOS>MOLECULE
./../dock_file/temp/c85520a79fe3252f1e64fbd1fbc05b38/Camostat_Ligand_CID_2536:hmTMPRSS5:20230414003128/Camostat_Ligand_CID_2536:hmTMPRSS5_out_1.pdbqt
 33 34 0 0 0
SMALL
GASTEIGER

@<TRIPOS>ATOM
      1  O         22.8160    2.0820   29.2660 O.3     1  LIG1       -0.2750
      2  C         21.6320    1.5940   29.7280 C.ar    1  LIG1        0.0790
      3  C         20.4290    2.0680   29.2040 C.ar    1  LIG1        0.0380
      4  C         19.2170    1.5670   29.6770 C.ar    1  LIG1        0.0100
      5  C         19.2070    0.5910   30.6740 C.ar    1  LIG1       -0.0490
      6  C         20.4100    0.1170   31.1970 C.ar    1  LIG1        0.0100
      7  C         21.6230    0.6180   30.7240 C.ar    1  LIG1        0.0380
      8  C         17.8970    0.0500   31.1850 C.3     1  LIG1        0.1490
      9  C         16.8060    0.0640   30.1400 C.2     1  LIG1        0.2630
     10  O         16.8710   -0.4660   29.0400 O.2     1  LIG1       -0.2650
     11  O         15.7230    0.7640   30.6170 O.3     1  LIG1       -0.3120
     12  C         15.3010    0.4470   31.9260 C.3     1  LIG1        0.2810
     13  C         14.6120    1.6460   32.5440 C.2     1  LIG1        0.2430
     14  O         14.4500    2.6570   31.8560 O.2     1  LIG1       -0.2710
     15  N         14.1900    1.5310   33.8690 N.am    1  LIG1       -0.3590
     16  C         14.3500    0.3470   34.7110 C.3     1  LIG1        0.1520
     17  C         13.5150    2.6560   34.5050 C.3     1  LIG1        0.1520
     18  C         23.5470    2.8060   30.2110 C.2     1  LIG1        0.2980
     19  O         23.1290    3.7510   30.8640 O.2     1  LIG1       -0.2590
     20  C         24.9350    2.2910   30.3230 C.ar    1  LIG1        0.0400
     21  C         25.2740    1.0690   29.7440 C.ar    1  LIG1        0.0200
     22  C         26.5790    0.5860   29.8490 C.ar    1  LIG1        0.0330
     23  C         27.5430    1.3240   30.5340 C.ar    1  LIG1        0.0750
     24  C         27.2040    2.5470   31.1140 C.ar    1  LIG1        0.0330
     25  C         25.9000    3.0300   31.0090 C.ar    1  LIG1        0.0200
     26  N         28.8510    0.8390   30.6400 N.pl3   1  LIG1       -0.0660
     27  C         29.7320    1.1880   29.7330 C.cat   1  LIG1        0.6920
     28  N         29.5270    2.0050   28.6420 N.pl3   1  LIG1       -0.2330
     29  N         31.0280    0.7340   29.8000 N.pl3   1  LIG1       -0.2330
     30  H         28.6390    2.3960   28.4790 H       1  LIG1        0.1740
     31  H         30.2700    2.1960   28.0240 H       1  LIG1        0.1740
     32  H         31.3040    0.1400   30.5350 H       1  LIG1        0.1740
     33  H         31.6800    1.0030   29.1130 H       1  LIG1        0.1740
@<TRIPOS>BOND
     1    31    28    1
     2    30    28    1
     3    28    27    1
     4    10     9    2
     5    33    29    1
     6     3     4   ar
     7     3     2   ar
     8     1     2    1
     9     1    18    1
    10     4     5   ar
    11     2     7   ar
    12    27    29    1
    13    27    26    2
    14    21    22   ar
    15    21    20   ar
    16    29    32    1
    17    22    23   ar
    18     9    11    1
    19     9     8    1
    20    18    20    1
    21    18    19    2
    22    20    25   ar
    23    23    26    1
    24    23    24   ar
    25    11    12    1
    26     5     8    1
    27     5     6   ar
    28     7     6   ar
    29    25    24   ar
    30    14    13    2
    31    12    13    1
    32    13    15   am
    33    15    17    1
    34    15    16    1
@<TRIPOS>MOLECULE
./../dock_file/temp/c85520a79fe3252f1e64fbd1fbc05b38/Camostat_Ligand_CID_2536:hmTMPRSS5:20230414003128/Camostat_Ligand_CID_2536:hmTMPRSS5_out_1.pdbqt
 33 34 0 0 0
SMALL
GASTEIGER

@<TRIPOS>ATOM
      1  O         19.8500   17.2090   23.5350 O.3     1  LIG1       -0.2750
      2  C         20.3650   16.2080   24.2990 C.ar    1  LIG1        0.0790
      3  C         19.6050   15.6540   25.3300 C.ar    1  LIG1        0.0380
      4  C         20.1330   14.6290   26.1130 C.ar    1  LIG1        0.0100
      5  C         21.4210   14.1540   25.8660 C.ar    1  LIG1       -0.0490
      6  C         22.1820   14.7080   24.8350 C.ar    1  LIG1        0.0100
      7  C         21.6530   15.7340   24.0520 C.ar    1  LIG1        0.0380
      8  C         21.9920   13.0460   26.7120 C.3     1  LIG1        0.1490
      9  C         21.3730   11.7000   26.4150 C.2     1  LIG1        0.2630
     10  O         20.1770   11.4470   26.4500 O.2     1  LIG1       -0.2650
     11  O         22.3620   10.8000   26.0980 O.3     1  LIG1       -0.3120
     12  C         23.1310   11.0950   24.9510 C.3     1  LIG1        0.2810
     13  C         24.5110   10.4880   25.0920 C.2     1  LIG1        0.2430
     14  O         25.1510   10.7040   26.1250 O.2     1  LIG1       -0.2710
     15  N         24.9790    9.7040   24.0370 N.am    1  LIG1       -0.3590
     16  C         24.2460    9.4140   22.8070 C.3     1  LIG1        0.1520
     17  C         26.2980    9.0910   24.1310 C.3     1  LIG1        0.1520
     18  C         20.3620   18.4750   23.8250 C.2     1  LIG1        0.2980
     19  O         21.4810   18.8750   23.5400 O.2     1  LIG1       -0.2590
     20  C         19.3670   19.3000   24.5570 C.ar    1  LIG1        0.0400
     21  C         18.0400   18.8810   24.6400 C.ar    1  LIG1        0.0200
     22  C         17.1060   19.6550   25.3270 C.ar    1  LIG1        0.0330
     23  C         17.4980   20.8500   25.9310 C.ar    1  LIG1        0.0750
     24  C         18.8260   21.2700   25.8480 C.ar    1  LIG1        0.0330
     25  C         19.7600   20.4950   25.1610 C.ar    1  LIG1        0.0200
     26  N         16.5610   21.6260   26.6200 N.pl3   1  LIG1       -0.0660
     27  C         16.0050   22.6430   26.0060 C.cat   1  LIG1        0.6920
     28  N         16.2330   23.0630   24.7130 N.pl3   1  LIG1       -0.2330
     29  N         15.0790   23.4310   26.6480 N.pl3   1  LIG1       -0.2330
     30  H         16.8770   22.5820   24.1460 H       1  LIG1        0.1740
     31  H         15.7530   23.8460   24.3590 H       1  LIG1        0.1740
     32  H         14.8260   23.2350   27.5780 H       1  LIG1        0.1740
     33  H         14.6680   24.1910   26.1750 H       1  LIG1        0.1740
@<TRIPOS>BOND
     1    16    15    1
     2     1    18    1
     3     1     2    1
     4    19    18    2
     5    18    20    1
     6    15    17    1
     7    15    13   am
     8     7     2   ar
     9     7     6   ar
    10    30    28    1
    11     2     3   ar
    12    31    28    1
    13    20    21   ar
    14    20    25   ar
    15    21    22   ar
    16    28    27    1
    17     6     5   ar
    18    12    13    1
    19    12    11    1
    20    13    14    2
    21    25    24   ar
    22    22    23   ar
    23     3     4   ar
    24    24    23   ar
    25     5     4   ar
    26     5     8    1
    27    23    26    1
    28    27    26    2
    29    27    29    1
    30    11     9    1
    31    33    29    1
    32     9    10    2
    33     9     8    1
    34    29    32    1
@<TRIPOS>MOLECULE
./../dock_file/temp/c85520a79fe3252f1e64fbd1fbc05b38/Camostat_Ligand_CID_2536:hmTMPRSS5:20230414003128/Camostat_Ligand_CID_2536:hmTMPRSS5_out_1.pdbqt
 33 34 0 0 0
SMALL
GASTEIGER

@<TRIPOS>ATOM
      1  O         19.5540    5.3180   34.8490 O.3     1  LIG1       -0.2750
      2  C         18.2540    4.9180   34.7950 C.ar    1  LIG1        0.0790
      3  C         17.9200    3.7090   34.1860 C.ar    1  LIG1        0.0380
      4  C         16.5880    3.3000   34.1310 C.ar    1  LIG1        0.0100
      5  C         15.5890    4.0990   34.6860 C.ar    1  LIG1       -0.0490
      6  C         15.9230    5.3090   35.2960 C.ar    1  LIG1        0.0100
      7  C         17.2550    5.7180   35.3510 C.ar    1  LIG1        0.0380
      8  C         14.1500    3.6570   34.6270 C.3     1  LIG1        0.1490
      9  C         13.9950    2.1540   34.6260 C.2     1  LIG1        0.2630
     10  O         14.1890    1.4210   35.5860 O.2     1  LIG1       -0.2650
     11  O         13.5990    1.7340   33.3780 O.3     1  LIG1       -0.3120
     12  C         14.0810    0.4740   32.9620 C.3     1  LIG1        0.2810
     13  C         15.3210    0.6590   32.1120 C.2     1  LIG1        0.2430
     14  O         15.2290    1.2890   31.0550 O.2     1  LIG1       -0.2710
     15  N         16.5120    0.1070   32.5850 N.am    1  LIG1       -0.3590
     16  C         16.6650   -0.6320   33.8370 C.3     1  LIG1        0.1520
     17  C         17.7340    0.2660   31.8070 C.3     1  LIG1        0.1520
     18  C         19.8810    6.3310   33.9450 C.2     1  LIG1        0.2980
     19  O         19.5070    7.4920   34.0100 O.2     1  LIG1       -0.2590
     20  C         20.7500    5.8170   32.8560 C.ar    1  LIG1        0.0400
     21  C         20.1810    5.1940   31.7460 C.ar    1  LIG1        0.0200
     22  C         20.9980    4.7110   30.7230 C.ar    1  LIG1        0.0330
     23  C         22.3820    4.8510   30.8110 C.ar    1  LIG1        0.0750
     24  C         22.9520    5.4740   31.9210 C.ar    1  LIG1        0.0330
     25  C         22.1360    5.9560   32.9440 C.ar    1  LIG1        0.0200
     26  N         23.2010    4.3660   29.7840 N.pl3   1  LIG1       -0.0660
     27  C         23.6540    3.1380   29.8620 C.cat   1  LIG1        0.6920
     28  N         23.4200    2.2230   30.8650 N.pl3   1  LIG1       -0.2330
     29  N         24.4610    2.6240   28.8740 N.pl3   1  LIG1       -0.2330
     30  H         22.8560    2.4690   31.6330 H       1  LIG1        0.1740
     31  H         23.8180    1.3240   30.8140 H       1  LIG1        0.1740
     32  H         24.7040    3.1790   28.0980 H       1  LIG1        0.1740
     33  H         24.7950    1.7000   28.9430 H       1  LIG1        0.1740
@<TRIPOS>BOND
     1    32    29    1
     2    29    33    1
     3    29    27    1
     4    26    27    2
     5    26    23    1
     6    27    28    1
     7    22    23   ar
     8    22    21   ar
     9    23    24   ar
    10    31    28    1
    11    28    30    1
    12    14    13    2
    13    21    20   ar
    14    17    15    1
    15    24    25   ar
    16    13    15   am
    17    13    12    1
    18    15    16    1
    19    20    25   ar
    20    20    18    1
    21    12    11    1
    22    11     9    1
    23    18    19    2
    24    18     1    1
    25     4     3   ar
    26     4     5   ar
    27     3     2   ar
    28     9     8    1
    29     9    10    2
    30     8     5    1
    31     5     6   ar
    32     2     1    1
    33     2     7   ar
    34     6     7   ar
@<TRIPOS>MOLECULE
./../dock_file/temp/c85520a79fe3252f1e64fbd1fbc05b38/Camostat_Ligand_CID_2536:hmTMPRSS5:20230414003128/Camostat_Ligand_CID_2536:hmTMPRSS5_out_1.pdbqt
 33 34 0 0 0
SMALL
GASTEIGER

@<TRIPOS>ATOM
      1  O         20.4510    4.9370   33.6880 O.3     1  LIG1       -0.2750
      2  C         21.1840    4.9970   32.5430 C.ar    1  LIG1        0.0790
      3  C         20.6520    4.5130   31.3470 C.ar    1  LIG1        0.0380
      4  C         21.4030    4.5750   30.1750 C.ar    1  LIG1        0.0100
      5  C         22.6870    5.1200   30.1960 C.ar    1  LIG1       -0.0490
      6  C         23.2190    5.6030   31.3920 C.ar    1  LIG1        0.0100
      7  C         22.4670    5.5420   32.5650 C.ar    1  LIG1        0.0380
      8  C         23.4990    5.1870   28.9290 C.3     1  LIG1        0.1490
      9  C         23.8300    3.8230   28.3690 C.2     1  LIG1        0.2630
     10  O         23.1980    3.2420   27.4980 O.2     1  LIG1       -0.2650
     11  O         24.9550    3.3330   28.9890 O.3     1  LIG1       -0.3120
     12  C         24.8510    2.0360   29.5370 C.3     1  LIG1        0.2810
     13  C         24.5140    2.1310   31.0100 C.2     1  LIG1        0.2430
     14  O         25.3470    2.6200   31.7790 O.2     1  LIG1       -0.2710
     15  N         23.2640    1.6630   31.4150 N.am    1  LIG1       -0.3590
     16  C         22.2470    1.0930   30.5340 C.3     1  LIG1        0.1520
     17  C         22.8910    1.7420   32.8220 C.3     1  LIG1        0.1520
     18  C         19.1670    5.4780   33.5780 C.2     1  LIG1        0.2980
     19  O         18.9010    6.6080   33.1970 O.2     1  LIG1       -0.2590
     20  C         18.1350    4.5000   34.0040 C.ar    1  LIG1        0.0400
     21  C         18.3550    3.1340   33.8300 C.ar    1  LIG1        0.0200
     22  C         17.3850    2.2150   34.2310 C.ar    1  LIG1        0.0330
     23  C         16.1950    2.6620   34.8060 C.ar    1  LIG1        0.0750
     24  C         15.9750    4.0280   34.9800 C.ar    1  LIG1        0.0330
     25  C         16.9450    4.9470   34.5790 C.ar    1  LIG1        0.0200
     26  N         15.2230    1.7400   35.2080 N.pl3   1  LIG1       -0.0660
     27  C         14.3700    1.2900   34.3190 C.cat   1  LIG1        0.6920
     28  N         14.3050    1.6210   32.9820 N.pl3   1  LIG1       -0.2330
     29  N         13.3990    0.3830   34.6730 N.pl3   1  LIG1       -0.2330
     30  H         14.9460    2.2630   32.6020 H       1  LIG1        0.1740
     31  H         13.6150    1.2150   32.4080 H       1  LIG1        0.1740
     32  H         13.3390    0.0640   35.6020 H       1  LIG1        0.1740
     33  H         12.7650    0.0520   33.9960 H       1  LIG1        0.1740
@<TRIPOS>BOND
     1    10     9    2
     2     9     8    1
     3     9    11    1
     4     8     5    1
     5    11    12    1
     6    12    13    1
     7     4     5   ar
     8     4     3   ar
     9     5     6   ar
    10    16    15    1
    11    13    15   am
    12    13    14    2
    13     3     2   ar
    14     6     7   ar
    15    15    17    1
    16    31    28    1
    17     2     7   ar
    18     2     1    1
    19    30    28    1
    20    28    27    1
    21    19    18    2
    22    18     1    1
    23    18    20    1
    24    21    20   ar
    25    21    22   ar
    26    33    29    1
    27    20    25   ar
    28    22    23   ar
    29    27    29    1
    30    27    26    2
    31    25    24   ar
    32    29    32    1
    33    23    24   ar
    34    23    26    1
