@<TRIPOS>MOLECULE
./../dock_file/temp/c85520a79fe3252f1e64fbd1fbc05b38/Camostat_Ligand_CID_2536:hmTMPRSS5:20230414003128/Camostat_Ligand_CID_2536:hmTMPRSS5_out_4.pdbqt
 33 34 0 0 0
SMALL
GASTEIGER

@<TRIPOS>ATOM
      1  O         15.4940   -2.1820   30.0130 O.3     1  LIG1       -0.2750
      2  C         16.2420   -1.2950   30.7240 C.ar    1  LIG1        0.0790
      3  C         15.6260   -0.2250   31.3750 C.ar    1  LIG1        0.0380
      4  C         16.3930    0.6830   32.1030 C.ar    1  LIG1        0.0100
      5  C         17.7770    0.5230   32.1830 C.ar    1  LIG1       -0.0490
      6  C         18.3930   -0.5470   31.5320 C.ar    1  LIG1        0.0100
      7  C         17.6250   -1.4560   30.8030 C.ar    1  LIG1        0.0380
      8  C         18.6060    1.5040   32.9700 C.3     1  LIG1        0.1490
      9  C         19.8650    1.9230   32.2480 C.2     1  LIG1        0.2630
     10  O         21.0020    1.6020   32.5630 O.2     1  LIG1       -0.2650
     11  O         19.5370    2.7230   31.1790 O.3     1  LIG1       -0.3120
     12  C         20.3990    3.8130   30.9270 C.3     1  LIG1        0.2810
     13  C         20.8860    3.7550   29.4940 C.2     1  LIG1        0.2430
     14  O         20.0640    3.8710   28.5820 O.2     1  LIG1       -0.2710
     15  N         22.2560    3.5820   29.2880 N.am    1  LIG1       -0.3590
     16  C         23.2610    3.4570   30.3410 C.3     1  LIG1        0.1520
     17  C         22.7740    3.5290   27.9270 C.3     1  LIG1        0.1520
     18  C         15.5300   -3.4880   30.5060 C.2     1  LIG1        0.2980
     19  O         15.1760   -3.8400   31.6210 O.2     1  LIG1       -0.2590
     20  C         16.0780   -4.4270   29.4940 C.ar    1  LIG1        0.0400
     21  C         16.3750   -3.9720   28.2090 C.ar    1  LIG1        0.0200
     22  C         16.8900   -4.8540   27.2590 C.ar    1  LIG1        0.0330
     23  C         17.1090   -6.1900   27.5930 C.ar    1  LIG1        0.0750
     24  C         16.8120   -6.6460   28.8780 C.ar    1  LIG1        0.0330
     25  C         16.2960   -5.7640   29.8280 C.ar    1  LIG1        0.0200
     26  N         17.6260   -7.0740   26.6400 N.pl3   1  LIG1       -0.0660
     27  C         17.1360   -7.0520   25.4230 C.cat   1  LIG1        0.6920
     28  N         16.1350   -6.2360   24.9410 N.pl3   1  LIG1       -0.2330
     29  N         17.6170   -7.9040   24.4570 N.pl3   1  LIG1       -0.2330
     30  H         15.7060   -5.5790   25.5350 H       1  LIG1        0.1740
     31  H         15.8490   -6.3120   24.0020 H       1  LIG1        0.1740
     32  H         18.3360   -8.5390   24.6750 H       1  LIG1        0.1740
     33  H         17.2410   -7.8770   23.5470 H       1  LIG1        0.1740
@<TRIPOS>BOND
     1    33    29    1
     2    31    28    1
     3    29    32    1
     4    29    27    1
     5    28    27    1
     6    28    30    1
     7    27    26    2
     8    26    23    1
     9    22    23   ar
    10    22    21   ar
    11    23    24   ar
    12    17    15    1
    13    21    20   ar
    14    14    13    2
    15    24    25   ar
    16    15    13   am
    17    15    16    1
    18    13    12    1
    19    20    25   ar
    20    20    18    1
    21     1    18    1
    22     1     2    1
    23    18    19    2
    24     2     7   ar
    25     2     3   ar
    26     7     6   ar
    27    12    11    1
    28    11     9    1
    29     3     4   ar
    30     6     5   ar
    31     4     5   ar
    32     5     8    1
    33     9    10    2
    34     9     8    1
@<TRIPOS>MOLECULE
./../dock_file/temp/c85520a79fe3252f1e64fbd1fbc05b38/Camostat_Ligand_CID_2536:hmTMPRSS5:20230414003128/Camostat_Ligand_CID_2536:hmTMPRSS5_out_4.pdbqt
 33 34 0 0 0
SMALL
GASTEIGER

@<TRIPOS>ATOM
      1  O         14.3510   -4.5730   30.0970 O.3     1  LIG1       -0.2750
      2  C         14.3560   -5.2250   31.2910 C.ar    1  LIG1        0.0790
      3  C         13.5090   -4.8080   32.3180 C.ar    1  LIG1        0.0380
      4  C         13.5140   -5.4770   33.5410 C.ar    1  LIG1        0.0100
      5  C         14.3660   -6.5640   33.7390 C.ar    1  LIG1       -0.0490
      6  C         15.2140   -6.9810   32.7120 C.ar    1  LIG1        0.0100
      7  C         15.2080   -6.3120   31.4880 C.ar    1  LIG1        0.0380
      8  C         14.3720   -7.2870   35.0610 C.3     1  LIG1        0.1490
      9  C         13.0630   -7.9800   35.3590 C.2     1  LIG1        0.2630
     10  O         12.2220   -7.5910   36.1570 O.2     1  LIG1       -0.2650
     11  O         12.9610   -9.1170   34.5930 O.3     1  LIG1       -0.3120
     12  C         12.6470  -10.3080   35.2840 C.3     1  LIG1        0.2810
     13  C         12.9050  -11.5000   34.3860 C.2     1  LIG1        0.2430
     14  O         12.2310  -11.6280   33.3610 O.2     1  LIG1       -0.2710
     15  N         13.9090  -12.3890   34.7720 N.am    1  LIG1       -0.3590
     16  C         14.7380  -12.2630   35.9690 C.3     1  LIG1        0.1520
     17  C         14.2010  -13.5470   33.9370 C.3     1  LIG1        0.1520
     18  C         15.6120   -4.1500   29.6670 C.2     1  LIG1        0.2980
     19  O         16.2920   -3.2850   30.1960 O.2     1  LIG1       -0.2590
     20  C         16.0360   -4.8850   28.4480 C.ar    1  LIG1        0.0400
     21  C         16.8440   -6.0160   28.5620 C.ar    1  LIG1        0.0200
     22  C         17.2420   -6.7060   27.4170 C.ar    1  LIG1        0.0330
     23  C         16.8330   -6.2650   26.1580 C.ar    1  LIG1        0.0750
     24  C         16.0250   -5.1340   26.0450 C.ar    1  LIG1        0.0330
     25  C         15.6270   -4.4440   27.1900 C.ar    1  LIG1        0.0200
     26  N         17.2330   -6.9570   25.0100 N.pl3   1  LIG1       -0.0660
     27  C         16.3190   -7.3390   24.1500 C.cat   1  LIG1        0.6920
     28  N         14.9580   -7.1390   24.2340 N.pl3   1  LIG1       -0.2330
     29  N         16.6700   -8.0220   23.0090 N.pl3   1  LIG1       -0.2330
     30  H         14.5780   -6.6620   25.0060 H       1  LIG1        0.1740
     31  H         14.3670   -7.4740   23.5220 H       1  LIG1        0.1740
     32  H         17.6150   -8.2280   22.8300 H       1  LIG1        0.1740
     33  H         15.9750   -8.3020   22.3710 H       1  LIG1        0.1740
@<TRIPOS>BOND
     1    33    29    1
     2    32    29    1
     3    29    27    1
     4    31    28    1
     5    27    28    1
     6    27    26    2
     7    28    30    1
     8    26    23    1
     9    24    23   ar
    10    24    25   ar
    11    23    22   ar
    12    25    20   ar
    13    22    21   ar
    14    20    21   ar
    15    20    18    1
    16    18     1    1
    17    18    19    2
    18     1     2    1
    19     2     7   ar
    20     2     3   ar
    21     7     6   ar
    22     3     4   ar
    23     6     5   ar
    24    14    13    2
    25     4     5   ar
    26     5     8    1
    27    17    15    1
    28    13    15   am
    29    13    12    1
    30    11    12    1
    31    11     9    1
    32    15    16    1
    33     8     9    1
    34     9    10    2
@<TRIPOS>MOLECULE
./../dock_file/temp/c85520a79fe3252f1e64fbd1fbc05b38/Camostat_Ligand_CID_2536:hmTMPRSS5:20230414003128/Camostat_Ligand_CID_2536:hmTMPRSS5_out_4.pdbqt
 33 34 0 0 0
SMALL
GASTEIGER

@<TRIPOS>ATOM
      1  O         19.6530    6.8680   34.6920 O.3     1  LIG1       -0.2750
      2  C         20.2870    6.2090   33.6850 C.ar    1  LIG1        0.0790
      3  C         19.5440    5.5830   32.6840 C.ar    1  LIG1        0.0380
      4  C         20.1940    4.9080   31.6520 C.ar    1  LIG1        0.0100
      5  C         21.5880    4.8580   31.6190 C.ar    1  LIG1       -0.0490
      6  C         22.3310    5.4840   32.6200 C.ar    1  LIG1        0.0100
      7  C         21.6800    6.1600   33.6530 C.ar    1  LIG1        0.0380
      8  C         22.2910    4.1280   30.5040 C.3     1  LIG1        0.1490
      9  C         21.8920    4.6220   29.1330 C.2     1  LIG1        0.2630
     10  O         22.2990    5.6460   28.6030 O.2     1  LIG1       -0.2650
     11  O         20.9990    3.7410   28.5700 O.3     1  LIG1       -0.3120
     12  C         21.1560    2.3830   28.9220 C.3     1  LIG1        0.2810
     13  C         19.8420    1.8350   29.4390 C.2     1  LIG1        0.2430
     14  O         18.7900    2.2710   28.9650 O.2     1  LIG1       -0.2710
     15  N         19.9010    0.8510   30.4270 N.am    1  LIG1       -0.3590
     16  C         21.1260    0.3000   31.0020 C.3     1  LIG1        0.1520
     17  C         18.6630    0.2880   30.9500 C.3     1  LIG1        0.1520
     18  C         19.3750    6.0790   35.8110 C.2     1  LIG1        0.2980
     19  O         20.0890    5.9620   36.7950 O.2     1  LIG1       -0.2590
     20  C         18.0830    5.3650   35.6550 C.ar    1  LIG1        0.0400
     21  C         18.0220    3.9840   35.8420 C.ar    1  LIG1        0.0200
     22  C         16.8070    3.3140   35.6960 C.ar    1  LIG1        0.0330
     23  C         15.6540    4.0230   35.3620 C.ar    1  LIG1        0.0750
     24  C         15.7150    5.4040   35.1740 C.ar    1  LIG1        0.0330
     25  C         16.9290    6.0750   35.3200 C.ar    1  LIG1        0.0200
     26  N         14.4370    3.3500   35.2150 N.pl3   1  LIG1       -0.0660
     27  C         14.1470    2.8090   34.0560 C.cat   1  LIG1        0.6920
     28  N         14.9200    2.8170   32.9150 N.pl3   1  LIG1       -0.2330
     29  N         12.9610    2.1390   33.8710 N.pl3   1  LIG1       -0.2330
     30  H         15.7950    3.2660   32.9160 H       1  LIG1        0.1740
     31  H         14.5940    2.3740   32.0980 H       1  LIG1        0.1740
     32  H         12.3180    2.0610   34.6120 H       1  LIG1        0.1740
     33  H         12.7550    1.7360   32.9960 H       1  LIG1        0.1740
@<TRIPOS>BOND
     1    11    12    1
     2    11     9    1
     3    10     9    2
     4    12    13    1
     5    14    13    2
     6     9     8    1
     7    13    15   am
     8    15    17    1
     9    15    16    1
    10     8     5    1
    11     5     4   ar
    12     5     6   ar
    13     4     3   ar
    14    31    28    1
    15     6     7   ar
    16     3     2   ar
    17    28    30    1
    18    28    27    1
    19    33    29    1
    20     7     2   ar
    21     2     1    1
    22    29    27    1
    23    29    32    1
    24    27    26    2
    25     1    18    1
    26    24    25   ar
    27    24    23   ar
    28    26    23    1
    29    25    20   ar
    30    23    22   ar
    31    20    18    1
    32    20    21   ar
    33    22    21   ar
    34    18    19    2
@<TRIPOS>MOLECULE
./../dock_file/temp/c85520a79fe3252f1e64fbd1fbc05b38/Camostat_Ligand_CID_2536:hmTMPRSS5:20230414003128/Camostat_Ligand_CID_2536:hmTMPRSS5_out_4.pdbqt
 33 34 0 0 0
SMALL
GASTEIGER

@<TRIPOS>ATOM
      1  O         19.7240    6.6560   34.3670 O.3     1  LIG1       -0.2750
      2  C         20.3050    5.6790   33.6190 C.ar    1  LIG1        0.0790
      3  C         19.7810    5.3520   32.3690 C.ar    1  LIG1        0.0380
      4  C         20.3770    4.3510   31.6030 C.ar    1  LIG1        0.0100
      5  C         21.4990    3.6780   32.0850 C.ar    1  LIG1       -0.0490
      6  C         22.0240    4.0050   33.3360 C.ar    1  LIG1        0.0100
      7  C         21.4280    5.0070   34.1020 C.ar    1  LIG1        0.0380
      8  C         22.1440    2.5960   31.2580 C.3     1  LIG1        0.1490
      9  C         23.5790    2.9050   30.8990 C.2     1  LIG1        0.2630
     10  O         24.5630    2.3720   31.3920 O.2     1  LIG1       -0.2650
     11  O         23.6100    3.8790   29.9300 O.3     1  LIG1       -0.3120
     12  C         23.6300    3.4280   28.5920 C.3     1  LIG1        0.2810
     13  C         22.7360    4.3100   27.7440 C.2     1  LIG1        0.2430
     14  O         23.1870    5.3760   27.3180 O.2     1  LIG1       -0.2710
     15  N         21.4430    3.8530   27.4850 N.am    1  LIG1       -0.3590
     16  C         20.8800    2.5910   27.9580 C.3     1  LIG1        0.1520
     17  C         20.5490    4.6620   26.6660 C.3     1  LIG1        0.1520
     18  C         19.2830    6.2320   35.6230 C.2     1  LIG1        0.2980
     19  O         19.8530    6.4350   36.6850 O.2     1  LIG1       -0.2590
     20  C         18.0120    5.4700   35.5160 C.ar    1  LIG1        0.0400
     21  C         18.0140    4.0850   35.6750 C.ar    1  LIG1        0.0200
     22  C         16.8210    3.3700   35.5740 C.ar    1  LIG1        0.0330
     23  C         15.6260    4.0400   35.3130 C.ar    1  LIG1        0.0750
     24  C         15.6230    5.4260   35.1540 C.ar    1  LIG1        0.0330
     25  C         16.8170    6.1410   35.2540 C.ar    1  LIG1        0.0200
     26  N         14.4290    3.3230   35.2120 N.pl3   1  LIG1       -0.0660
     27  C         14.1060    2.7870   34.0600 C.cat   1  LIG1        0.6920
     28  N         14.8240    2.8410   32.8840 N.pl3   1  LIG1       -0.2330
     29  N         12.9390    2.0740   33.9190 N.pl3   1  LIG1       -0.2330
     30  H         15.6810    3.3240   32.8530 H       1  LIG1        0.1740
     31  H         14.4780    2.3970   32.0760 H       1  LIG1        0.1740
     32  H         12.3350    1.9610   34.6870 H       1  LIG1        0.1740
     33  H         12.7080    1.6760   33.0480 H       1  LIG1        0.1740
@<TRIPOS>BOND
     1    17    15    1
     2    14    13    2
     3    15    13   am
     4    15    16    1
     5    13    12    1
     6    12    11    1
     7    11     9    1
     8     9     8    1
     9     9    10    2
    10     8     5    1
    11     4     5   ar
    12     4     3   ar
    13    31    28    1
    14     5     6   ar
    15     3     2   ar
    16    30    28    1
    17    28    27    1
    18    33    29    1
    19     6     7   ar
    20     2     7   ar
    21     2     1    1
    22    29    27    1
    23    29    32    1
    24    27    26    2
    25     1    18    1
    26    24    25   ar
    27    24    23   ar
    28    26    23    1
    29    25    20   ar
    30    23    22   ar
    31    20    18    1
    32    20    21   ar
    33    22    21   ar
    34    18    19    2
@<TRIPOS>MOLECULE
./../dock_file/temp/c85520a79fe3252f1e64fbd1fbc05b38/Camostat_Ligand_CID_2536:hmTMPRSS5:20230414003128/Camostat_Ligand_CID_2536:hmTMPRSS5_out_4.pdbqt
 33 34 0 0 0
SMALL
GASTEIGER

@<TRIPOS>ATOM
      1  O         21.7520    5.1840   29.1780 O.3     1  LIG1       -0.2750
      2  C         21.1130    4.0240   29.4920 C.ar    1  LIG1        0.0790
      3  C         20.7540    3.1300   28.4830 C.ar    1  LIG1        0.0380
      4  C         20.0990    1.9420   28.8050 C.ar    1  LIG1        0.0100
      5  C         19.8050    1.6460   30.1360 C.ar    1  LIG1       -0.0490
      6  C         20.1650    2.5400   31.1450 C.ar    1  LIG1        0.0100
      7  C         20.8190    3.7290   30.8230 C.ar    1  LIG1        0.0380
      8  C         19.0980    0.3620   30.4840 C.3     1  LIG1        0.1490
      9  C         17.6190    0.4030   30.1800 C.2     1  LIG1        0.2630
     10  O         17.1060    0.0990   29.1110 O.2     1  LIG1       -0.2650
     11  O         16.9330    0.8340   31.2900 O.3     1  LIG1       -0.3120
     12  C         15.5880    0.4150   31.3960 C.3     1  LIG1        0.2810
     13  C         14.7990    1.4330   32.1910 C.2     1  LIG1        0.2430
     14  O         14.4930    2.5000   31.6520 O.2     1  LIG1       -0.2710
     15  N         14.4510    1.0970   33.5000 N.am    1  LIG1       -0.3590
     16  C         14.7810   -0.1610   34.1670 C.3     1  LIG1        0.1520
     17  C         13.6840    2.0400   34.3030 C.3     1  LIG1        0.1520
     18  C         22.9170    5.0140   28.4260 C.2     1  LIG1        0.2980
     19  O         23.0610    5.3260   27.2540 O.2     1  LIG1       -0.2590
     20  C         23.9870    4.3760   29.2340 C.ar    1  LIG1        0.0400
     21  C         24.4570    5.0020   30.3880 C.ar    1  LIG1        0.0200
     22  C         25.4620    4.4020   31.1480 C.ar    1  LIG1        0.0330
     23  C         25.9980    3.1770   30.7520 C.ar    1  LIG1        0.0750
     24  C         25.5290    2.5500   29.5970 C.ar    1  LIG1        0.0330
     25  C         24.5240    3.1500   28.8380 C.ar    1  LIG1        0.0200
     26  N         27.0060    2.5760   31.5130 N.pl3   1  LIG1       -0.0660
     27  C         26.6720    1.6880   32.4190 C.cat   1  LIG1        0.6920
     28  N         25.4030    1.2530   32.7330 N.pl3   1  LIG1       -0.2330
     29  N         27.6330    1.0740   33.1890 N.pl3   1  LIG1       -0.2330
     30  H         24.6250    1.6170   32.2530 H       1  LIG1        0.1740
     31  H         25.2750    0.5770   33.4390 H       1  LIG1        0.1740
     32  H         28.5820    1.2990   33.0620 H       1  LIG1        0.1740
     33  H         27.3690    0.4090   33.8650 H       1  LIG1        0.1740
@<TRIPOS>BOND
     1    19    18    2
     2    18     1    1
     3    18    20    1
     4     3     4   ar
     5     3     2   ar
     6     4     5   ar
     7    25    20   ar
     8    25    24   ar
     9    10     9    2
    10     1     2    1
    11    20    21   ar
    12     2     7   ar
    13    24    23   ar
    14     5     8    1
    15     5     6   ar
    16     9     8    1
    17     9    11    1
    18    21    22   ar
    19    23    22   ar
    20    23    26    1
    21     7     6   ar
    22    11    12    1
    23    12    13    1
    24    26    27    2
    25    14    13    2
    26    13    15   am
    27    30    28    1
    28    27    28    1
    29    27    29    1
    30    28    31    1
    31    32    29    1
    32    29    33    1
    33    15    16    1
    34    15    17    1
@<TRIPOS>MOLECULE
./../dock_file/temp/c85520a79fe3252f1e64fbd1fbc05b38/Camostat_Ligand_CID_2536:hmTMPRSS5:20230414003128/Camostat_Ligand_CID_2536:hmTMPRSS5_out_4.pdbqt
 33 34 0 0 0
SMALL
GASTEIGER

@<TRIPOS>ATOM
      1  O         20.5340    4.9930   33.8440 O.3     1  LIG1       -0.2750
      2  C         21.1800    5.0170   32.6460 C.ar    1  LIG1        0.0790
      3  C         20.4980    4.6770   31.4780 C.ar    1  LIG1        0.0380
      4  C         21.1600    4.7010   30.2510 C.ar    1  LIG1        0.0100
      5  C         22.5050    5.0670   30.1910 C.ar    1  LIG1       -0.0490
      6  C         23.1870    5.4070   31.3600 C.ar    1  LIG1        0.0100
      7  C         22.5240    5.3820   32.5870 C.ar    1  LIG1        0.0380
      8  C         23.2210    5.0940   28.8660 C.3     1  LIG1        0.1490
      9  C         23.0710    3.8060   28.0900 C.2     1  LIG1        0.2630
     10  O         22.6370    3.7120   26.9500 O.2     1  LIG1       -0.2650
     11  O         23.5000    2.7520   28.8610 O.3     1  LIG1       -0.3120
     12  C         24.8900    2.6790   29.1010 C.3     1  LIG1        0.2810
     13  C         25.2200    1.3700   29.7880 C.2     1  LIG1        0.2430
     14  O         24.2930    0.6350   30.1400 O.2     1  LIG1       -0.2710
     15  N         26.5680    1.0660   29.9770 N.am    1  LIG1       -0.3590
     16  C         27.6920    1.9030   29.5620 C.3     1  LIG1        0.1520
     17  C         26.9360   -0.1860   30.6260 C.3     1  LIG1        0.1520
     18  C         19.4480    5.8690   33.9280 C.2     1  LIG1        0.2980
     19  O         19.4960    7.0800   33.7750 O.2     1  LIG1       -0.2590
     20  C         18.1960    5.1390   34.2520 C.ar    1  LIG1        0.0400
     21  C         18.0740    3.7870   33.9320 C.ar    1  LIG1        0.0200
     22  C         16.8980    3.1020   34.2360 C.ar    1  LIG1        0.0330
     23  C         15.8430    3.7690   34.8590 C.ar    1  LIG1        0.0750
     24  C         15.9640    5.1210   35.1790 C.ar    1  LIG1        0.0330
     25  C         17.1410    5.8070   34.8750 C.ar    1  LIG1        0.0200
     26  N         14.6630    3.0810   35.1640 N.pl3   1  LIG1       -0.0660
     27  C         13.7230    3.0020   34.2530 C.cat   1  LIG1        0.6920
     28  N         13.7460    3.5300   32.9810 N.pl3   1  LIG1       -0.2330
     29  N         12.5490    2.3350   34.5130 N.pl3   1  LIG1       -0.2330
     30  H         14.5330    4.0330   32.6710 H       1  LIG1        0.1740
     31  H         12.9740    3.4050   32.3820 H       1  LIG1        0.1740
     32  H         12.4070    1.9100   35.3890 H       1  LIG1        0.1740
     33  H         11.8500    2.2820   33.8210 H       1  LIG1        0.1740
@<TRIPOS>BOND
     1    10     9    2
     2     9    11    1
     3     9     8    1
     4    11    12    1
     5     8     5    1
     6    12    13    1
     7    16    15    1
     8    13    15   am
     9    13    14    2
    10    15    17    1
    11     5     4   ar
    12     5     6   ar
    13     4     3   ar
    14     6     7   ar
    15     3     2   ar
    16    31    28    1
    17     7     2   ar
    18     2     1    1
    19    30    28    1
    20    28    27    1
    21    19    18    2
    22    33    29    1
    23     1    18    1
    24    18    20    1
    25    21    22   ar
    26    21    20   ar
    27    22    23   ar
    28    20    25   ar
    29    27    29    1
    30    27    26    2
    31    29    32    1
    32    23    26    1
    33    23    24   ar
    34    25    24   ar
@<TRIPOS>MOLECULE
./../dock_file/temp/c85520a79fe3252f1e64fbd1fbc05b38/Camostat_Ligand_CID_2536:hmTMPRSS5:20230414003128/Camostat_Ligand_CID_2536:hmTMPRSS5_out_4.pdbqt
 33 34 0 0 0
SMALL
GASTEIGER

@<TRIPOS>ATOM
      1  O         13.7630    1.3860   34.7400 O.3     1  LIG1       -0.2750
      2  C         14.4830    1.0230   33.6440 C.ar    1  LIG1        0.0790
      3  C         14.2710    1.6650   32.4240 C.ar    1  LIG1        0.0380
      4  C         15.0090    1.2920   31.3020 C.ar    1  LIG1        0.0100
      5  C         15.9610    0.2770   31.3980 C.ar    1  LIG1       -0.0490
      6  C         16.1740   -0.3650   32.6180 C.ar    1  LIG1        0.0100
      7  C         15.4350    0.0080   33.7410 C.ar    1  LIG1        0.0380
      8  C         16.7590   -0.1260   30.1850 C.3     1  LIG1        0.1490
      9  C         18.2110    0.2800   30.2740 C.2     1  LIG1        0.2630
     10  O         19.0520   -0.2460   30.9910 O.2     1  LIG1       -0.2650
     11  O         18.4460    1.3330   29.4220 O.3     1  LIG1       -0.3120
     12  C         19.7960    1.5700   29.0800 C.3     1  LIG1        0.2810
     13  C         20.0990    3.0490   29.1960 C.2     1  LIG1        0.2430
     14  O         19.8840    3.7770   28.2240 O.2     1  LIG1       -0.2710
     15  N         20.6010    3.5080   30.4150 N.am    1  LIG1       -0.3590
     16  C         20.8540    2.6800   31.5920 C.3     1  LIG1        0.1520
     17  C         20.9000    4.9250   30.5780 C.3     1  LIG1        0.1520
     18  C         14.5300    1.5890   35.8900 C.2     1  LIG1        0.2980
     19  O         14.5000    0.9000   36.8980 O.2     1  LIG1       -0.2590
     20  C         15.4000    2.7850   35.7490 C.ar    1  LIG1        0.0400
     21  C         16.7550    2.7030   36.0680 C.ar    1  LIG1        0.0200
     22  C         17.5720    3.8260   35.9350 C.ar    1  LIG1        0.0330
     23  C         17.0340    5.0310   35.4850 C.ar    1  LIG1        0.0750
     24  C         15.6780    5.1130   35.1660 C.ar    1  LIG1        0.0330
     25  C         14.8610    3.9910   35.2990 C.ar    1  LIG1        0.0200
     26  N         17.8530    6.1570   35.3520 N.pl3   1  LIG1       -0.0660
     27  C         18.6300    6.2550   34.2990 C.cat   1  LIG1        0.6920
     28  N         18.7490    5.3540   33.2630 N.pl3   1  LIG1       -0.2330
     29  N         19.4500    7.3450   34.1310 N.pl3   1  LIG1       -0.2330
     30  H         18.2140    4.5280   33.2650 H       1  LIG1        0.1740
     31  H         19.3710    5.5360   32.5220 H       1  LIG1        0.1740
     32  H         19.4580    8.0640   34.8030 H       1  LIG1        0.1740
     33  H         20.0280    7.4070   33.3360 H       1  LIG1        0.1740
@<TRIPOS>BOND
     1    14    13    2
     2    12    13    1
     3    12    11    1
     4    13    15   am
     5    11     9    1
     6     8     9    1
     7     8     5    1
     8     9    10    2
     9    15    17    1
    10    15    16    1
    11     4     5   ar
    12     4     3   ar
    13     5     6   ar
    14     3     2   ar
    15    31    28    1
    16     6     7   ar
    17    28    30    1
    18    28    27    1
    19    33    29    1
    20     2     7   ar
    21     2     1    1
    22    29    27    1
    23    29    32    1
    24    27    26    2
    25     1    18    1
    26    24    25   ar
    27    24    23   ar
    28    25    20   ar
    29    26    23    1
    30    23    22   ar
    31    20    18    1
    32    20    21   ar
    33    18    19    2
    34    22    21   ar
@<TRIPOS>MOLECULE
./../dock_file/temp/c85520a79fe3252f1e64fbd1fbc05b38/Camostat_Ligand_CID_2536:hmTMPRSS5:20230414003128/Camostat_Ligand_CID_2536:hmTMPRSS5_out_4.pdbqt
 33 34 0 0 0
SMALL
GASTEIGER

@<TRIPOS>ATOM
      1  O         20.9220    4.1540   34.5870 O.3     1  LIG1       -0.2750
      2  C         20.7520    4.0300   33.2420 C.ar    1  LIG1        0.0790
      3  C         20.7300    5.1660   32.4340 C.ar    1  LIG1        0.0380
      4  C         20.5560    5.0390   31.0560 C.ar    1  LIG1        0.0100
      5  C         20.4040    3.7740   30.4860 C.ar    1  LIG1       -0.0490
      6  C         20.4270    2.6380   31.2950 C.ar    1  LIG1        0.0100
      7  C         20.6010    2.7650   32.6730 C.ar    1  LIG1        0.0380
      8  C         20.2160    3.6360   28.9980 C.3     1  LIG1        0.1490
      9  C         21.4280    4.0710   28.2080 C.2     1  LIG1        0.2630
     10  O         21.6210    5.1950   27.7660 O.2     1  LIG1       -0.2650
     11  O         22.2860    3.0060   28.0600 O.3     1  LIG1       -0.3120
     12  C         23.6170    3.2140   28.4830 C.3     1  LIG1        0.2810
     13  C         23.8330    2.5530   29.8280 C.2     1  LIG1        0.2430
     14  O         23.7790    1.3220   29.9010 O.2     1  LIG1       -0.2710
     15  N         24.0920    3.3850   30.9180 N.am    1  LIG1       -0.3590
     16  C         24.1790    4.8430   30.8690 C.3     1  LIG1        0.1520
     17  C         24.3150    2.7950   32.2320 C.3     1  LIG1        0.1520
     18  C         20.1020    5.1140   35.1840 C.2     1  LIG1        0.2980
     19  O         20.4760    6.1760   35.6570 O.2     1  LIG1       -0.2590
     20  C         18.6830    4.6750   35.1920 C.ar    1  LIG1        0.0400
     21  C         18.3460    3.4130   35.6810 C.ar    1  LIG1        0.0200
     22  C         17.0140    3.0010   35.6900 C.ar    1  LIG1        0.0330
     23  C         16.0180    3.8510   35.2080 C.ar    1  LIG1        0.0750
     24  C         16.3540    5.1130   34.7180 C.ar    1  LIG1        0.0330
     25  C         17.6870    5.5250   34.7100 C.ar    1  LIG1        0.0200
     26  N         14.6810    3.4370   35.2160 N.pl3   1  LIG1       -0.0660
     27  C         14.1830    2.8810   34.1380 C.cat   1  LIG1        0.6920
     28  N         14.8330    2.6400   32.9470 N.pl3   1  LIG1       -0.2330
     29  N         12.8740    2.4610   34.1050 N.pl3   1  LIG1       -0.2330
     30  H         15.7770    2.8960   32.8410 H       1  LIG1        0.1740
     31  H         14.3510    2.2130   32.2010 H       1  LIG1        0.1740
     32  H         12.3010    2.5760   34.8960 H       1  LIG1        0.1740
     33  H         12.5120    2.0440   33.2900 H       1  LIG1        0.1740
@<TRIPOS>BOND
     1    10     9    2
     2    11     9    1
     3    11    12    1
     4     9     8    1
     5    12    13    1
     6     8     5    1
     7    13    14    2
     8    13    15   am
     9     5     4   ar
    10     5     6   ar
    11    16    15    1
    12    15    17    1
    13     4     3   ar
    14     6     7   ar
    15    31    28    1
    16     3     2   ar
    17     7     2   ar
    18    30    28    1
    19    28    27    1
    20     2     1    1
    21    33    29    1
    22    29    27    1
    23    29    32    1
    24    27    26    2
    25     1    18    1
    26    25    24   ar
    27    25    20   ar
    28    24    23   ar
    29    18    20    1
    30    18    19    2
    31    20    21   ar
    32    23    26    1
    33    23    22   ar
    34    21    22   ar
@<TRIPOS>MOLECULE
./../dock_file/temp/c85520a79fe3252f1e64fbd1fbc05b38/Camostat_Ligand_CID_2536:hmTMPRSS5:20230414003128/Camostat_Ligand_CID_2536:hmTMPRSS5_out_4.pdbqt
 33 34 0 0 0
SMALL
GASTEIGER

@<TRIPOS>ATOM
      1  O         13.8310    1.4230   34.2270 O.3     1  LIG1       -0.2750
      2  C         14.4480    0.5960   33.3390 C.ar    1  LIG1        0.0790
      3  C         14.6790   -0.7390   33.6720 C.ar    1  LIG1        0.0380
      4  C         15.3110   -1.5850   32.7620 C.ar    1  LIG1        0.0100
      5  C         15.7130   -1.0970   31.5180 C.ar    1  LIG1       -0.0490
      6  C         15.4820    0.2380   31.1850 C.ar    1  LIG1        0.0100
      7  C         14.8490    1.0850   32.0960 C.ar    1  LIG1        0.0380
      8  C         16.3960   -2.0120   30.5350 C.3     1  LIG1        0.1490
      9  C         15.6400   -3.2990   30.3040 C.2     1  LIG1        0.2630
     10  O         14.8130   -3.4870   29.4220 O.2     1  LIG1       -0.2650
     11  O         16.0240   -4.2310   31.2380 O.3     1  LIG1       -0.3120
     12  C         15.2040   -5.3750   31.3530 C.3     1  LIG1        0.2810
     13  C         14.3410   -5.2610   32.5920 C.2     1  LIG1        0.2430
     14  O         14.8890   -5.0840   33.6830 O.2     1  LIG1       -0.2710
     15  N         12.9590   -5.3540   32.4230 N.am    1  LIG1       -0.3590
     16  C         12.2720   -5.5470   31.1470 C.3     1  LIG1        0.1520
     17  C         12.0860   -5.2410   33.5840 C.3     1  LIG1        0.1520
     18  C         14.5010    1.5610   35.4450 C.2     1  LIG1        0.2980
     19  O         14.3830    0.8220   36.4110 O.2     1  LIG1       -0.2590
     20  C         15.3850    2.7540   35.4370 C.ar    1  LIG1        0.0400
     21  C         16.7240    2.6320   35.8080 C.ar    1  LIG1        0.0200
     22  C         17.5550    3.7520   35.8000 C.ar    1  LIG1        0.0330
     23  C         17.0480    4.9950   35.4210 C.ar    1  LIG1        0.0750
     24  C         15.7090    5.1170   35.0500 C.ar    1  LIG1        0.0330
     25  C         14.8770    3.9970   35.0580 C.ar    1  LIG1        0.0200
     26  N         17.8810    6.1180   35.4130 N.pl3   1  LIG1       -0.0660
     27  C         18.6390    6.3370   34.3650 C.cat   1  LIG1        0.6920
     28  N         18.7250    5.5720   33.2220 N.pl3   1  LIG1       -0.2330
     29  N         19.4730    7.4300   34.3180 N.pl3   1  LIG1       -0.2330
     30  H         18.1780    4.7590   33.1320 H       1  LIG1        0.1740
     31  H         19.3360    5.8380   32.4970 H       1  LIG1        0.1740
     32  H         19.5040    8.0580   35.0750 H       1  LIG1        0.1740
     33  H         20.0370    7.5840   33.5250 H       1  LIG1        0.1740
@<TRIPOS>BOND
     1    10     9    2
     2     9     8    1
     3     9    11    1
     4     8     5    1
     5    16    15    1
     6     6     5   ar
     7     6     7   ar
     8    11    12    1
     9    12    13    1
    10     5     4   ar
    11     7     2   ar
    12    15    13   am
    13    15    17    1
    14    31    28    1
    15    13    14    2
    16     4     3   ar
    17    30    28    1
    18    28    27    1
    19     2     3   ar
    20     2     1    1
    21    33    29    1
    22     1    18    1
    23    29    27    1
    24    29    32    1
    25    27    26    2
    26    24    25   ar
    27    24    23   ar
    28    25    20   ar
    29    26    23    1
    30    23    22   ar
    31    20    18    1
    32    20    21   ar
    33    18    19    2
    34    22    21   ar
