@<TRIPOS>MOLECULE
./../dock_file/temp/c85520a79fe3252f1e64fbd1fbc05b38/Camostat_Ligand_CID_2536:hmTMPRSS5:20230414003128/Camostat_Ligand_CID_2536:hmTMPRSS5_out_5.pdbqt
 33 34 0 0 0
SMALL
GASTEIGER

@<TRIPOS>ATOM
      1  O          2.8640  -19.8820   25.0010 O.3     1  LIG1       -0.2750
      2  C          2.1270  -19.6230   23.8860 C.ar    1  LIG1        0.0790
      3  C          1.4460  -20.6570   23.2430 C.ar    1  LIG1        0.0380
      4  C          0.6910  -20.3910   22.1020 C.ar    1  LIG1        0.0100
      5  C          0.6150  -19.0900   21.6030 C.ar    1  LIG1       -0.0490
      6  C          1.2960  -18.0560   22.2460 C.ar    1  LIG1        0.0100
      7  C          2.0510  -18.3220   23.3880 C.ar    1  LIG1        0.0380
      8  C         -0.2010  -18.8030   20.3700 C.3     1  LIG1        0.1490
      9  C          0.5950  -18.1210   19.2820 C.2     1  LIG1        0.2630
     10  O          0.6230  -16.9160   19.0740 O.2     1  LIG1       -0.2650
     11  O          1.2880  -19.0640   18.5600 O.3     1  LIG1       -0.3120
     12  C          1.8500  -18.6270   17.3400 C.3     1  LIG1        0.2810
     13  C          2.7060  -19.7290   16.7510 C.2     1  LIG1        0.2430
     14  O          3.6180  -20.2020   17.4350 O.2     1  LIG1       -0.2710
     15  N          2.4040  -20.1550   15.4570 N.am    1  LIG1       -0.3590
     16  C          1.3250  -19.6310   14.6230 C.3     1  LIG1        0.1520
     17  C          3.1950  -21.2180   14.8510 C.3     1  LIG1        0.1520
     18  C          2.1590  -20.5280   26.0190 C.2     1  LIG1        0.2980
     19  O          1.0740  -20.1840   26.4630 O.2     1  LIG1       -0.2590
     20  C          2.9090  -21.7050   26.5260 C.ar    1  LIG1        0.0400
     21  C          3.1460  -21.8460   27.8920 C.ar    1  LIG1        0.0200
     22  C          3.8490  -22.9520   28.3680 C.ar    1  LIG1        0.0330
     23  C          4.3170  -23.9180   27.4770 C.ar    1  LIG1        0.0750
     24  C          4.0810  -23.7770   26.1090 C.ar    1  LIG1        0.0330
     25  C          3.3770  -22.6710   25.6340 C.ar    1  LIG1        0.0200
     26  N          5.0230  -25.0270   27.9540 N.pl3   1  LIG1       -0.0660
     27  C          6.3260  -24.9440   28.0780 C.cat   1  LIG1        0.6920
     28  N          7.1250  -23.8590   27.7860 N.pl3   1  LIG1       -0.2330
     29  N          7.0570  -26.0120   28.5440 N.pl3   1  LIG1       -0.2330
     30  H          6.7220  -23.0300   27.4430 H       1  LIG1        0.1740
     31  H          8.0990  -23.9160   27.9200 H       1  LIG1        0.1740
     32  H          6.6030  -26.8490   28.7890 H       1  LIG1        0.1740
     33  H          8.0350  -25.9370   28.6320 H       1  LIG1        0.1740
@<TRIPOS>BOND
     1    16    15    1
     2    17    15    1
     3    15    13   am
     4    13    12    1
     5    13    14    2
     6    12    11    1
     7    11     9    1
     8    10     9    2
     9     9     8    1
    10     8     5    1
    11     5     4   ar
    12     5     6   ar
    13     4     3   ar
    14     6     7   ar
    15     3     2   ar
    16     7     2   ar
    17     2     1    1
    18     1    18    1
    19    25    24   ar
    20    25    20   ar
    21    18    19    2
    22    18    20    1
    23    24    23   ar
    24    20    21   ar
    25    30    28    1
    26    23    26    1
    27    23    22   ar
    28    28    31    1
    29    28    27    1
    30    21    22   ar
    31    26    27    2
    32    27    29    1
    33    29    33    1
    34    29    32    1
@<TRIPOS>MOLECULE
./../dock_file/temp/c85520a79fe3252f1e64fbd1fbc05b38/Camostat_Ligand_CID_2536:hmTMPRSS5:20230414003128/Camostat_Ligand_CID_2536:hmTMPRSS5_out_5.pdbqt
 33 34 0 0 0
SMALL
GASTEIGER

@<TRIPOS>ATOM
      1  O         -0.9500  -18.9270   20.8370 O.3     1  LIG1       -0.2750
      2  C         -0.2970  -19.3610   19.7250 C.ar    1  LIG1        0.0790
      3  C          0.2920  -20.6260   19.7090 C.ar    1  LIG1        0.0380
      4  C          0.9610  -21.0690   18.5690 C.ar    1  LIG1        0.0100
      5  C          1.0400  -20.2500   17.4430 C.ar    1  LIG1       -0.0490
      6  C          0.4500  -18.9860   17.4580 C.ar    1  LIG1        0.0100
      7  C         -0.2190  -18.5410   18.5990 C.ar    1  LIG1        0.0380
      8  C          1.7620  -20.7300   16.2110 C.3     1  LIG1        0.1490
      9  C          3.0320  -19.9590   15.9350 C.2     1  LIG1        0.2630
     10  O          3.8020  -19.5340   16.7860 O.2     1  LIG1       -0.2650
     11  O          3.1920  -19.8090   14.5780 O.3     1  LIG1       -0.3120
     12  C          2.0090  -19.6570   13.8230 C.3     1  LIG1        0.2810
     13  C          2.2490  -18.6790   12.6920 C.2     1  LIG1        0.2430
     14  O          2.7070  -17.5650   12.9570 O.2     1  LIG1       -0.2710
     15  N          1.9420  -19.1050   11.3990 N.am    1  LIG1       -0.3590
     16  C          1.4130  -20.4200   11.0430 C.3     1  LIG1        0.1520
     17  C          2.1640  -18.2030   10.2760 C.3     1  LIG1        0.1520
     18  C         -0.2290  -18.0110   21.6060 C.2     1  LIG1        0.2980
     19  O         -0.2450  -16.7970   21.4690 O.2     1  LIG1       -0.2590
     20  C          0.5970  -18.7020   22.6290 C.ar    1  LIG1        0.0400
     21  C          0.1090  -19.8440   23.2630 C.ar    1  LIG1        0.0200
     22  C          0.8850  -20.4940   24.2230 C.ar    1  LIG1        0.0330
     23  C          2.1480  -20.0010   24.5500 C.ar    1  LIG1        0.0750
     24  C          2.6370  -18.8590   23.9150 C.ar    1  LIG1        0.0330
     25  C          1.8610  -18.2090   22.9550 C.ar    1  LIG1        0.0200
     26  N          2.9260  -20.6530   25.5120 N.pl3   1  LIG1       -0.0660
     27  C          2.8260  -20.2810   26.7660 C.cat   1  LIG1        0.6920
     28  N          2.0190  -19.2880   27.2800 N.pl3   1  LIG1       -0.2330
     29  N          3.5730  -20.8960   27.7430 N.pl3   1  LIG1       -0.2330
     30  H          1.4340  -18.7710   26.6820 H       1  LIG1        0.1740
     31  H          2.0310  -19.0970   28.2460 H       1  LIG1        0.1740
     32  H          4.1900  -21.6240   27.5050 H       1  LIG1        0.1740
     33  H          3.4890  -20.6070   28.6810 H       1  LIG1        0.1740
@<TRIPOS>BOND
     1    17    15    1
     2    16    15    1
     3    15    13   am
     4    13    14    2
     5    13    12    1
     6    12    11    1
     7    11     9    1
     8     9     8    1
     9     9    10    2
    10     8     5    1
    11     5     6   ar
    12     5     4   ar
    13     6     7   ar
    14     4     3   ar
    15     7     2   ar
    16     3     2   ar
    17     2     1    1
    18     1    18    1
    19    19    18    2
    20    18    20    1
    21    20    25   ar
    22    20    21   ar
    23    25    24   ar
    24    21    22   ar
    25    24    23   ar
    26    22    23   ar
    27    23    26    1
    28    26    27    2
    29    30    28    1
    30    27    28    1
    31    27    29    1
    32    28    31    1
    33    32    29    1
    34    29    33    1
@<TRIPOS>MOLECULE
./../dock_file/temp/c85520a79fe3252f1e64fbd1fbc05b38/Camostat_Ligand_CID_2536:hmTMPRSS5:20230414003128/Camostat_Ligand_CID_2536:hmTMPRSS5_out_5.pdbqt
 33 34 0 0 0
SMALL
GASTEIGER

@<TRIPOS>ATOM
      1  O          1.8540  -22.3500   14.9310 O.3     1  LIG1       -0.2750
      2  C          1.2970  -21.6560   15.9610 C.ar    1  LIG1        0.0790
      3  C          1.9890  -21.5160   17.1640 C.ar    1  LIG1        0.0380
      4  C          1.4180  -20.8050   18.2190 C.ar    1  LIG1        0.0100
      5  C          0.1540  -20.2340   18.0720 C.ar    1  LIG1       -0.0490
      6  C         -0.5390  -20.3740   16.8690 C.ar    1  LIG1        0.0100
      7  C          0.0330  -21.0850   15.8140 C.ar    1  LIG1        0.0380
      8  C         -0.4630  -19.4660   19.2120 C.3     1  LIG1        0.1490
      9  C          0.3130  -18.2210   19.5720 C.2     1  LIG1        0.2630
     10  O          0.2760  -17.1610   18.9620 O.2     1  LIG1       -0.2650
     11  O          1.0690  -18.4600   20.6950 O.3     1  LIG1       -0.3120
     12  C          0.3640  -18.8730   21.8460 C.3     1  LIG1        0.2810
     13  C          1.0330  -20.0930   22.4440 C.2     1  LIG1        0.2430
     14  O          0.7440  -21.2070   22.0000 O.2     1  LIG1       -0.2710
     15  N          1.9570  -19.8810   23.4690 N.am    1  LIG1       -0.3590
     16  C          2.3370  -18.5780   24.0110 C.3     1  LIG1        0.1520
     17  C          2.6340  -21.0230   24.0700 C.3     1  LIG1        0.1520
     18  C          2.9730  -21.7360   14.3640 C.2     1  LIG1        0.2980
     19  O          4.1320  -22.0970   14.5050 O.2     1  LIG1       -0.2590
     20  C          2.5830  -20.5500   13.5600 C.ar    1  LIG1        0.0400
     21  C          2.8740  -19.2670   14.0230 C.ar    1  LIG1        0.0200
     22  C          2.5080  -18.1530   13.2670 C.ar    1  LIG1        0.0330
     23  C          1.8510  -18.3220   12.0490 C.ar    1  LIG1        0.0750
     24  C          1.5610  -19.6050   11.5850 C.ar    1  LIG1        0.0330
     25  C          1.9260  -20.7190   12.3410 C.ar    1  LIG1        0.0200
     26  N          1.4850  -17.2050   11.2910 N.pl3   1  LIG1       -0.0660
     27  C          0.2390  -16.7970   11.3250 C.cat   1  LIG1        0.6920
     28  N         -0.8010  -17.3490   12.0410 N.pl3   1  LIG1       -0.2330
     29  N         -0.1620  -15.7030   10.5950 N.pl3   1  LIG1       -0.2330
     30  H         -0.6450  -18.1400   12.6050 H       1  LIG1        0.1740
     31  H         -1.7010  -16.9530   11.9860 H       1  LIG1        0.1740
     32  H          0.4880  -15.2160   10.0400 H       1  LIG1        0.1740
     33  H         -1.1010  -15.4060   10.6290 H       1  LIG1        0.1740
@<TRIPOS>BOND
     1    32    29    1
     2    29    33    1
     3    29    27    1
     4    26    27    2
     5    26    23    1
     6    27    28    1
     7    24    23   ar
     8    24    25   ar
     9    31    28    1
    10    28    30    1
    11    23    22   ar
    12    25    20   ar
    13    22    21   ar
    14    20    21   ar
    15    20    18    1
    16    18    19    2
    17    18     1    1
    18     1     2    1
    19     7     2   ar
    20     7     6   ar
    21     2     3   ar
    22     6     5   ar
    23     3     4   ar
    24     5     4   ar
    25     5     8    1
    26    10     9    2
    27     8     9    1
    28     9    11    1
    29    11    12    1
    30    12    13    1
    31    14    13    2
    32    13    15   am
    33    15    16    1
    34    15    17    1
@<TRIPOS>MOLECULE
./../dock_file/temp/c85520a79fe3252f1e64fbd1fbc05b38/Camostat_Ligand_CID_2536:hmTMPRSS5:20230414003128/Camostat_Ligand_CID_2536:hmTMPRSS5_out_5.pdbqt
 33 34 0 0 0
SMALL
GASTEIGER

@<TRIPOS>ATOM
      1  O         -1.0840  -19.3490   21.0660 O.3     1  LIG1       -0.2750
      2  C         -0.5430  -19.8590   19.9270 C.ar    1  LIG1        0.0790
      3  C         -0.4350  -19.0630   18.7860 C.ar    1  LIG1        0.0380
      4  C          0.1200  -19.5860   17.6200 C.ar    1  LIG1        0.0100
      5  C          0.5680  -20.9070   17.5920 C.ar    1  LIG1       -0.0490
      6  C          0.4600  -21.7040   18.7320 C.ar    1  LIG1        0.0100
      7  C         -0.0950  -21.1800   19.9000 C.ar    1  LIG1        0.0380
      8  C          1.1680  -21.4740   16.3310 C.3     1  LIG1        0.1490
      9  C          0.7580  -20.7140   15.0910 C.2     1  LIG1        0.2630
     10  O         -0.2310  -20.9490   14.4110 O.2     1  LIG1       -0.2650
     11  O          1.6680  -19.7150   14.8430 O.3     1  LIG1       -0.3120
     12  C          3.0190  -20.0170   15.1220 C.3     1  LIG1        0.2810
     13  C          3.5650  -19.0280   16.1300 C.2     1  LIG1        0.2430
     14  O          3.7310  -19.3990   17.2950 O.2     1  LIG1       -0.2710
     15  N          3.8590  -17.7420   15.6740 N.am    1  LIG1       -0.3590
     16  C          3.6900  -17.2700   14.3020 C.3     1  LIG1        0.1520
     17  C          4.3940  -16.7570   16.6060 C.3     1  LIG1        0.1520
     18  C         -0.3090  -18.3600   21.6780 C.2     1  LIG1        0.2980
     19  O         -0.3160  -17.1720   21.3940 O.2     1  LIG1       -0.2590
     20  C          0.5610  -18.9390   22.7330 C.ar    1  LIG1        0.0400
     21  C          1.8160  -18.3870   22.9820 C.ar    1  LIG1        0.0200
     22  C          2.6330  -18.9300   23.9730 C.ar    1  LIG1        0.0330
     23  C          2.1950  -20.0260   24.7160 C.ar    1  LIG1        0.0750
     24  C          0.9380  -20.5790   24.4670 C.ar    1  LIG1        0.0330
     25  C          0.1210  -20.0360   23.4750 C.ar    1  LIG1        0.0200
     26  N          3.0140  -20.5710   25.7100 N.pl3   1  LIG1       -0.0660
     27  C          2.8510  -20.1790   26.9510 C.cat   1  LIG1        0.6920
     28  N          1.9380  -19.2600   27.4230 N.pl3   1  LIG1       -0.2330
     29  N          3.6350  -20.6900   27.9580 N.pl3   1  LIG1       -0.2330
     30  H          1.3170  -18.8200   26.8000 H       1  LIG1        0.1740
     31  H          1.9100  -19.0440   28.3830 H       1  LIG1        0.1740
     32  H          4.3280  -21.3580   27.7510 H       1  LIG1        0.1740
     33  H          3.5030  -20.3880   28.8860 H       1  LIG1        0.1740
@<TRIPOS>BOND
     1    16    15    1
     2    10     9    2
     3    11     9    1
     4    11    12    1
     5     9     8    1
     6    12    13    1
     7    15    13   am
     8    15    17    1
     9    13    14    2
    10     8     5    1
    11     5     4   ar
    12     5     6   ar
    13     4     3   ar
    14     6     7   ar
    15     3     2   ar
    16     7     2   ar
    17     2     1    1
    18     1    18    1
    19    19    18    2
    20    18    20    1
    21    20    21   ar
    22    20    25   ar
    23    21    22   ar
    24    25    24   ar
    25    22    23   ar
    26    24    23   ar
    27    23    26    1
    28    26    27    2
    29    30    28    1
    30    27    28    1
    31    27    29    1
    32    28    31    1
    33    32    29    1
    34    29    33    1
@<TRIPOS>MOLECULE
./../dock_file/temp/c85520a79fe3252f1e64fbd1fbc05b38/Camostat_Ligand_CID_2536:hmTMPRSS5:20230414003128/Camostat_Ligand_CID_2536:hmTMPRSS5_out_5.pdbqt
 33 34 0 0 0
SMALL
GASTEIGER

@<TRIPOS>ATOM
      1  O         15.6990  -23.7390   13.3180 O.3     1  LIG1       -0.2750
      2  C         15.9790  -22.5160   12.7900 C.ar    1  LIG1        0.0790
      3  C         15.3190  -22.0850   11.6390 C.ar    1  LIG1        0.0380
      4  C         15.6070  -20.8320   11.0980 C.ar    1  LIG1        0.0100
      5  C         16.5530  -20.0090   11.7080 C.ar    1  LIG1       -0.0490
      6  C         17.2130  -20.4400   12.8590 C.ar    1  LIG1        0.0100
      7  C         16.9260  -21.6940   13.4000 C.ar    1  LIG1        0.0380
      8  C         16.8640  -18.6550   11.1240 C.3     1  LIG1        0.1490
      9  C         15.7830  -18.1520   10.1960 C.2     1  LIG1        0.2630
     10  O         15.7530  -18.3220    8.9850 O.2     1  LIG1       -0.2650
     11  O         14.8340  -17.4730   10.9230 O.3     1  LIG1       -0.3120
     12  C         13.6380  -17.1550   10.2430 C.3     1  LIG1        0.2810
     13  C         12.4490  -17.5550   11.0910 C.2     1  LIG1        0.2430
     14  O         12.2510  -16.9610   12.1550 O.2     1  LIG1       -0.2710
     15  N         11.6320  -18.5790   10.6100 N.am    1  LIG1       -0.3590
     16  C         11.8240  -19.2950    9.3500 C.3     1  LIG1        0.1520
     17  C         10.4700  -18.9930   11.3860 C.3     1  LIG1        0.1520
     18  C         14.4840  -23.8030   14.0040 C.2     1  LIG1        0.2980
     19  O         13.3810  -23.9190   13.4910 O.2     1  LIG1       -0.2590
     20  C         14.6910  -23.6960   15.4710 C.ar    1  LIG1        0.0400
     21  C         14.1890  -22.5970   16.1670 C.ar    1  LIG1        0.0200
     22  C         14.3830  -22.4970   17.5450 C.ar    1  LIG1        0.0330
     23  C         15.0790  -23.4950   18.2260 C.ar    1  LIG1        0.0750
     24  C         15.5810  -24.5950   17.5300 C.ar    1  LIG1        0.0330
     25  C         15.3870  -24.6950   16.1520 C.ar    1  LIG1        0.0200
     26  N         15.2740  -23.3940   19.6080 N.pl3   1  LIG1       -0.0660
     27  C         14.3920  -23.9370   20.4130 C.cat   1  LIG1        0.6920
     28  N         13.2510  -24.6240   20.0600 N.pl3   1  LIG1       -0.2330
     29  N         14.5470  -23.8610   21.7770 N.pl3   1  LIG1       -0.2330
     30  H         13.0250  -24.7480   19.1110 H       1  LIG1        0.1740
     31  H         12.6600  -24.9890   20.7590 H       1  LIG1        0.1740
     32  H         15.3250  -23.3950   22.1590 H       1  LIG1        0.1740
     33  H         13.8790  -24.2730   22.3710 H       1  LIG1        0.1740
@<TRIPOS>BOND
     1    10     9    2
     2    16    15    1
     3     9    11    1
     4     9     8    1
     5    12    11    1
     6    12    13    1
     7    15    13   am
     8    15    17    1
     9    13    14    2
    10     4     3   ar
    11     4     5   ar
    12     8     5    1
    13     3     2   ar
    14     5     6   ar
    15     2     1    1
    16     2     7   ar
    17     6     7   ar
    18     1    18    1
    19    19    18    2
    20    18    20    1
    21    20    25   ar
    22    20    21   ar
    23    25    24   ar
    24    21    22   ar
    25    24    23   ar
    26    22    23   ar
    27    23    26    1
    28    30    28    1
    29    26    27    2
    30    28    27    1
    31    28    31    1
    32    27    29    1
    33    29    32    1
    34    29    33    1
@<TRIPOS>MOLECULE
./../dock_file/temp/c85520a79fe3252f1e64fbd1fbc05b38/Camostat_Ligand_CID_2536:hmTMPRSS5:20230414003128/Camostat_Ligand_CID_2536:hmTMPRSS5_out_5.pdbqt
 33 34 0 0 0
SMALL
GASTEIGER

@<TRIPOS>ATOM
      1  O         14.5100  -23.9630   13.3620 O.3     1  LIG1       -0.2750
      2  C         13.2410  -23.6770   12.9630 C.ar    1  LIG1        0.0790
      3  C         12.9190  -22.3910   12.5280 C.ar    1  LIG1        0.0380
      4  C         11.6180  -22.0980   12.1200 C.ar    1  LIG1        0.0100
      5  C         10.6390  -23.0910   12.1440 C.ar    1  LIG1       -0.0490
      6  C         10.9610  -24.3770   12.5790 C.ar    1  LIG1        0.0100
      7  C         12.2620  -24.6700   12.9880 C.ar    1  LIG1        0.0380
      8  C          9.2330  -22.7750   11.7020 C.3     1  LIG1        0.1490
      9  C          9.1580  -22.3040   10.2690 C.2     1  LIG1        0.2630
     10  O          9.5720  -22.9220    9.2970 O.2     1  LIG1       -0.2650
     11  O          8.5510  -21.0720   10.2220 O.3     1  LIG1       -0.3120
     12  C          9.2740  -20.0440    9.5770 C.3     1  LIG1        0.2810
     13  C          9.9400  -19.1630   10.6140 C.2     1  LIG1        0.2430
     14  O          9.2690  -18.7580   11.5670 O.2     1  LIG1       -0.2710
     15  N         11.2900  -18.8640   10.4310 N.am    1  LIG1       -0.3590
     16  C         12.1200  -19.3360    9.3240 C.3     1  LIG1        0.1520
     17  C         11.9770  -18.0270   11.4060 C.3     1  LIG1        0.1520
     18  C         15.0820  -22.9980   14.1940 C.2     1  LIG1        0.2980
     19  O         15.7470  -22.0420   13.8240 O.2     1  LIG1       -0.2590
     20  C         14.7950  -23.2830   15.6230 C.ar    1  LIG1        0.0400
     21  C         14.3540  -22.2620   16.4630 C.ar    1  LIG1        0.0200
     22  C         14.0840  -22.5310   17.8050 C.ar    1  LIG1        0.0330
     23  C         14.2550  -23.8210   18.3070 C.ar    1  LIG1        0.0750
     24  C         14.6960  -24.8430   17.4660 C.ar    1  LIG1        0.0330
     25  C         14.9660  -24.5740   16.1240 C.ar    1  LIG1        0.0200
     26  N         13.9840  -24.0900   19.6520 N.pl3   1  LIG1       -0.0660
     27  C         14.9010  -23.8200   20.5500 C.cat   1  LIG1        0.6920
     28  N         16.1510  -23.2820   20.3310 N.pl3   1  LIG1       -0.2330
     29  N         14.6740  -24.0690   21.8830 N.pl3   1  LIG1       -0.2330
     30  H         16.4370  -23.0580   19.4160 H       1  LIG1        0.1740
     31  H         16.7590  -23.1240   21.0900 H       1  LIG1        0.1740
     32  H         13.8160  -24.4540   22.1730 H       1  LIG1        0.1740
     33  H         15.3710  -23.8620   22.5480 H       1  LIG1        0.1740
@<TRIPOS>BOND
     1    10     9    2
     2    16    15    1
     3    12    11    1
     4    12    13    1
     5    11     9    1
     6     9     8    1
     7    15    13   am
     8    15    17    1
     9    13    14    2
    10     8     5    1
    11     4     5   ar
    12     4     3   ar
    13     5     6   ar
    14     3     2   ar
    15     6     7   ar
    16     2     7   ar
    17     2     1    1
    18     1    18    1
    19    19    18    2
    20    18    20    1
    21    20    25   ar
    22    20    21   ar
    23    25    24   ar
    24    21    22   ar
    25    24    23   ar
    26    22    23   ar
    27    23    26    1
    28    30    28    1
    29    26    27    2
    30    28    27    1
    31    28    31    1
    32    27    29    1
    33    29    32    1
    34    29    33    1
@<TRIPOS>MOLECULE
./../dock_file/temp/c85520a79fe3252f1e64fbd1fbc05b38/Camostat_Ligand_CID_2536:hmTMPRSS5:20230414003128/Camostat_Ligand_CID_2536:hmTMPRSS5_out_5.pdbqt
 33 34 0 0 0
SMALL
GASTEIGER

@<TRIPOS>ATOM
      1  O         15.4730  -23.1860   13.1040 O.3     1  LIG1       -0.2750
      2  C         15.9890  -21.9930   12.7010 C.ar    1  LIG1        0.0790
      3  C         15.4080  -21.3050   11.6350 C.ar    1  LIG1        0.0380
      4  C         15.9380  -20.0840   11.2220 C.ar    1  LIG1        0.0100
      5  C         17.0480  -19.5480   11.8750 C.ar    1  LIG1       -0.0490
      6  C         17.6290  -20.2360   12.9400 C.ar    1  LIG1        0.0100
      7  C         17.1000  -21.4580   13.3540 C.ar    1  LIG1        0.0380
      8  C         17.6210  -18.2280   11.4290 C.3     1  LIG1        0.1490
      9  C         16.5700  -17.2770   10.9050 C.2     1  LIG1        0.2630
     10  O         15.6700  -16.7800   11.5670 O.2     1  LIG1       -0.2650
     11  O         16.7810  -17.0530    9.5650 O.3     1  LIG1       -0.3120
     12  C         15.6900  -17.3180    8.7080 C.3     1  LIG1        0.2810
     13  C         15.0950  -16.0140    8.2220 C.2     1  LIG1        0.2430
     14  O         15.8280  -15.2060    7.6450 O.2     1  LIG1       -0.2710
     15  N         13.7350  -15.8040    8.4490 N.am    1  LIG1       -0.3590
     16  C         12.8320  -16.7420    9.1140 C.3     1  LIG1        0.1520
     17  C         13.1150  -14.5670    7.9920 C.3     1  LIG1        0.1520
     18  C         14.3000  -23.0790   13.8560 C.2     1  LIG1        0.2980
     19  O         13.1880  -22.8400   13.4120 O.2     1  LIG1       -0.2590
     20  C         14.5720  -23.2810   15.3020 C.ar    1  LIG1        0.0400
     21  C         14.1310  -22.3390   16.2320 C.ar    1  LIG1        0.0200
     22  C         14.3850  -22.5290   17.5900 C.ar    1  LIG1        0.0330
     23  C         15.0810  -23.6590   18.0190 C.ar    1  LIG1        0.0750
     24  C         15.5220  -24.6010   17.0890 C.ar    1  LIG1        0.0330
     25  C         15.2680  -24.4110   15.7310 C.ar    1  LIG1        0.0200
     26  N         15.3360  -23.8480   19.3820 N.pl3   1  LIG1       -0.0660
     27  C         14.5410  -24.6290   20.0730 C.cat   1  LIG1        0.6920
     28  N         13.4390  -25.3160   19.6120 N.pl3   1  LIG1       -0.2330
     29  N         14.7570  -24.8420   21.4140 N.pl3   1  LIG1       -0.2330
     30  H         13.1760  -25.2470   18.6660 H       1  LIG1        0.1740
     31  H         12.9140  -25.8750   20.2300 H       1  LIG1        0.1740
     32  H         15.5160  -24.4070   21.8650 H       1  LIG1        0.1740
     33  H         14.1530  -25.4310   21.9220 H       1  LIG1        0.1740
@<TRIPOS>BOND
     1    14    13    2
     2    17    15    1
     3    13    15   am
     4    13    12    1
     5    15    16    1
     6    12    11    1
     7    11     9    1
     8     9     8    1
     9     9    10    2
    10     4     3   ar
    11     4     5   ar
    12     8     5    1
    13     3     2   ar
    14     5     6   ar
    15     2     1    1
    16     2     7   ar
    17     6     7   ar
    18     1    18    1
    19    19    18    2
    20    18    20    1
    21    20    25   ar
    22    20    21   ar
    23    25    24   ar
    24    21    22   ar
    25    24    23   ar
    26    22    23   ar
    27    23    26    1
    28    30    28    1
    29    26    27    2
    30    28    27    1
    31    28    31    1
    32    27    29    1
    33    29    32    1
    34    29    33    1
@<TRIPOS>MOLECULE
./../dock_file/temp/c85520a79fe3252f1e64fbd1fbc05b38/Camostat_Ligand_CID_2536:hmTMPRSS5:20230414003128/Camostat_Ligand_CID_2536:hmTMPRSS5_out_5.pdbqt
 33 34 0 0 0
SMALL
GASTEIGER

@<TRIPOS>ATOM
      1  O         -0.8390  -18.9940   20.5880 O.3     1  LIG1       -0.2750
      2  C         -0.0370  -19.4090   19.5700 C.ar    1  LIG1        0.0790
      3  C          0.4950  -18.4790   18.6760 C.ar    1  LIG1        0.0380
      4  C          1.3160  -18.9050   17.6340 C.ar    1  LIG1        0.0100
      5  C          1.6080  -20.2610   17.4840 C.ar    1  LIG1       -0.0490
      6  C          1.0760  -21.1910   18.3780 C.ar    1  LIG1        0.0100
      7  C          0.2540  -20.7650   19.4210 C.ar    1  LIG1        0.0380
      8  C          2.4960  -20.7210   16.3570 C.3     1  LIG1        0.1490
      9  C          1.7190  -21.2310   15.1660 C.2     1  LIG1        0.2630
     10  O          0.8740  -22.1140   15.1960 O.2     1  LIG1       -0.2650
     11  O          2.1080  -20.5470   14.0380 O.3     1  LIG1       -0.3120
     12  C          2.2600  -19.1500   14.1760 C.3     1  LIG1        0.2810
     13  C          1.6000  -18.4480   13.0080 C.2     1  LIG1        0.2430
     14  O          2.2940  -18.1220   12.0420 O.2     1  LIG1       -0.2710
     15  N          0.2260  -18.2170   13.0910 N.am    1  LIG1       -0.3590
     16  C         -0.6320  -18.6020   14.2100 C.3     1  LIG1        0.1520
     17  C         -0.4560  -17.5530   11.9880 C.3     1  LIG1        0.1520
     18  C         -0.2480  -18.0570   21.4400 C.2     1  LIG1        0.2980
     19  O         -0.3630  -16.8440   21.3550 O.2     1  LIG1       -0.2590
     20  C          0.5730  -18.7250   22.4820 C.ar    1  LIG1        0.0400
     21  C          1.8370  -18.2270   22.7980 C.ar    1  LIG1        0.0200
     22  C          2.6080  -18.8540   23.7770 C.ar    1  LIG1        0.0330
     23  C          2.1170  -19.9790   24.4390 C.ar    1  LIG1        0.0750
     24  C          0.8530  -20.4770   24.1220 C.ar    1  LIG1        0.0330
     25  C          0.0810  -19.8510   23.1430 C.ar    1  LIG1        0.0200
     26  N          2.8900  -20.6070   25.4200 N.pl3   1  LIG1       -0.0660
     27  C          2.7590  -20.2300   26.6690 C.cat   1  LIG1        0.6920
     28  N          1.9220  -19.2520   27.1610 N.pl3   1  LIG1       -0.2330
     29  N          3.5010  -20.8220   27.6640 N.pl3   1  LIG1       -0.2330
     30  H          1.3370  -18.7500   26.5500 H       1  LIG1        0.1740
     31  H          1.9110  -19.0540   28.1260 H       1  LIG1        0.1740
     32  H          4.1380  -21.5380   27.4420 H       1  LIG1        0.1740
     33  H          3.3930  -20.5300   28.5980 H       1  LIG1        0.1740
@<TRIPOS>BOND
     1    17    15    1
     2    14    13    2
     3    13    15   am
     4    13    12    1
     5    15    16    1
     6    11    12    1
     7    11     9    1
     8     9    10    2
     9     9     8    1
    10     8     5    1
    11     5     4   ar
    12     5     6   ar
    13     4     3   ar
    14     6     7   ar
    15     3     2   ar
    16     7     2   ar
    17     2     1    1
    18     1    18    1
    19    19    18    2
    20    18    20    1
    21    20    21   ar
    22    20    25   ar
    23    21    22   ar
    24    25    24   ar
    25    22    23   ar
    26    24    23   ar
    27    23    26    1
    28    26    27    2
    29    30    28    1
    30    27    28    1
    31    27    29    1
    32    28    31    1
    33    32    29    1
    34    29    33    1
@<TRIPOS>MOLECULE
./../dock_file/temp/c85520a79fe3252f1e64fbd1fbc05b38/Camostat_Ligand_CID_2536:hmTMPRSS5:20230414003128/Camostat_Ligand_CID_2536:hmTMPRSS5_out_5.pdbqt
 33 34 0 0 0
SMALL
GASTEIGER

@<TRIPOS>ATOM
      1  O          0.3740  -18.7710   10.9360 O.3     1  LIG1       -0.2750
      2  C          1.2360  -18.8340   11.9870 C.ar    1  LIG1        0.0790
      3  C          1.5190  -20.0620   12.5860 C.ar    1  LIG1        0.0380
      4  C          2.4010  -20.1260   13.6630 C.ar    1  LIG1        0.0100
      5  C          3.0040  -18.9620   14.1420 C.ar    1  LIG1       -0.0490
      6  C          2.7210  -17.7340   13.5430 C.ar    1  LIG1        0.0100
      7  C          1.8380  -17.6700   12.4660 C.ar    1  LIG1        0.0380
      8  C          3.9580  -19.0320   15.3060 C.3     1  LIG1        0.1490
      9  C          3.4740  -18.2590   16.5110 C.2     1  LIG1        0.2630
     10  O          3.7170  -17.0840   16.7440 O.2     1  LIG1       -0.2650
     11  O          2.7150  -19.0820   17.3090 O.3     1  LIG1       -0.3120
     12  C          1.3240  -18.8380   17.3140 C.3     1  LIG1        0.2810
     13  C          0.9110  -18.2760   18.6580 C.2     1  LIG1        0.2430
     14  O          1.0730  -17.0720   18.8740 O.2     1  LIG1       -0.2710
     15  N          0.3550  -19.1630   19.5820 N.am    1  LIG1       -0.3590
     16  C          0.1330  -20.5900   19.3580 C.3     1  LIG1        0.1520
     17  C         -0.0660  -18.6680   20.8860 C.3     1  LIG1        0.1520
     18  C          0.9200  -18.2110    9.7780 C.2     1  LIG1        0.2980
     19  O          1.9770  -18.5380    9.2580 O.2     1  LIG1       -0.2590
     20  C          0.0520  -17.1310    9.2440 C.ar    1  LIG1        0.0400
     21  C         -0.9330  -16.5650   10.0530 C.ar    1  LIG1        0.0200
     22  C         -1.7480  -15.5500    9.5510 C.ar    1  LIG1        0.0330
     23  C         -1.5790  -15.1020    8.2420 C.ar    1  LIG1        0.0750
     24  C         -0.5940  -15.6680    7.4320 C.ar    1  LIG1        0.0330
     25  C          0.2210  -16.6830    7.9340 C.ar    1  LIG1        0.0200
     26  N         -2.3970  -14.0840    7.7390 N.pl3   1  LIG1       -0.0660
     27  C         -1.9850  -12.8420    7.8200 C.cat   1  LIG1        0.6920
     28  N         -0.8000  -12.3890    8.3580 N.pl3   1  LIG1       -0.2330
     29  N         -2.7580  -11.8130    7.3370 N.pl3   1  LIG1       -0.2330
     30  H         -0.1560  -13.0280    8.7390 H       1  LIG1        0.1740
     31  H         -0.5990  -11.4250    8.3630 H       1  LIG1        0.1740
     32  H         -3.6310  -12.0040    6.9260 H       1  LIG1        0.1740
     33  H         -2.4370  -10.8840    7.4030 H       1  LIG1        0.1740
@<TRIPOS>BOND
     1    32    29    1
     2    29    33    1
     3    29    27    1
     4    24    25   ar
     5    24    23   ar
     6    26    27    2
     7    26    23    1
     8    27    28    1
     9    25    20   ar
    10    23    22   ar
    11    28    31    1
    12    28    30    1
    13    20    18    1
    14    20    21   ar
    15    19    18    2
    16    22    21   ar
    17    18     1    1
    18     1     2    1
    19     2     7   ar
    20     2     3   ar
    21     7     6   ar
    22     3     4   ar
    23     6     5   ar
    24     4     5   ar
    25     5     8    1
    26     8     9    1
    27     9    10    2
    28     9    11    1
    29    11    12    1
    30    12    13    1
    31    13    14    2
    32    13    15   am
    33    16    15    1
    34    15    17    1
