@<TRIPOS>MOLECULE
./../dock_file/temp/7f3995a203679a5c76c2dcf4ca9047ea/Camostat_Ligand_CID_2536:hmTMPRSS11_F:20230418111003/Camostat_Ligand_CID_2536:hmTMPRSS11_F_out_3.pdbqt
 33 34 0 0 0
SMALL
GASTEIGER

@<TRIPOS>ATOM
      1  O         20.2520   10.3880   13.1480 O.3     1  LIG1       -0.2750
      2  C         20.4590   11.2040   12.0790 C.ar    1  LIG1        0.0790
      3  C         19.8940   12.4800   12.0550 C.ar    1  LIG1        0.0380
      4  C         20.1070   13.3160   10.9600 C.ar    1  LIG1        0.0100
      5  C         20.8860   12.8780    9.8880 C.ar    1  LIG1       -0.0490
      6  C         21.4510   11.6030    9.9130 C.ar    1  LIG1        0.0100
      7  C         21.2380   10.7660   11.0090 C.ar    1  LIG1        0.0380
      8  C         21.1160   13.7820    8.7050 C.3     1  LIG1        0.1490
      9  C         22.0970   14.8940    8.9950 C.2     1  LIG1        0.2630
     10  O         21.8220   16.0840    9.0520 O.2     1  LIG1       -0.2650
     11  O         23.3500   14.3620    9.1860 O.3     1  LIG1       -0.3120
     12  C         24.0770   14.8590   10.2900 C.3     1  LIG1        0.2810
     13  C         23.9530   13.8980   11.4540 C.2     1  LIG1        0.2430
     14  O         24.5290   12.8090   11.3890 O.2     1  LIG1       -0.2710
     15  N         23.1930   14.3120   12.5500 N.am    1  LIG1       -0.3590
     16  C         22.5100   15.5980   12.6700 C.3     1  LIG1        0.1520
     17  C         23.0520   13.4260   13.6980 C.3     1  LIG1        0.1520
     18  C         19.4590    9.2710   12.8730 C.2     1  LIG1        0.2980
     19  O         19.8680    8.1780   12.5120 O.2     1  LIG1       -0.2590
     20  C         18.0180    9.5780   13.0600 C.ar    1  LIG1        0.0400
     21  C         17.0740    9.0610   12.1740 C.ar    1  LIG1        0.0200
     22  C         15.7210    9.3500   12.3500 C.ar    1  LIG1        0.0330
     23  C         15.3110   10.1560   13.4110 C.ar    1  LIG1        0.0750
     24  C         16.2550   10.6740   14.2980 C.ar    1  LIG1        0.0330
     25  C         17.6090   10.3850   14.1220 C.ar    1  LIG1        0.0200
     26  N         13.9540   10.4450   13.5880 N.pl3   1  LIG1       -0.0660
     27  C         13.3600   10.0530   14.6900 C.cat   1  LIG1        0.6920
     28  N         13.9240    9.3640   15.7420 N.pl3   1  LIG1       -0.2330
     29  N         12.0280   10.3180   14.9020 N.pl3   1  LIG1       -0.2330
     30  H         14.8750    9.1130   15.7120 H       1  LIG1        0.1740
     31  H         13.3740    9.1220   16.5220 H       1  LIG1        0.1740
     32  H         11.5090   10.8060   14.2230 H       1  LIG1        0.1740
     33  H         11.5930   10.0190   15.7330 H       1  LIG1        0.1740
@<TRIPOS>BOND
     1     8     9    1
     2     8     5    1
     3     9    10    2
     4     9    11    1
     5    11    12    1
     6     5     6   ar
     7     5     4   ar
     8     6     7   ar
     9    12    13    1
    10     4     3   ar
    11     7     2   ar
    12    14    13    2
    13    13    15   am
    14     3     2   ar
    15     2     1    1
    16    21    22   ar
    17    21    20   ar
    18    22    23   ar
    19    19    18    2
    20    15    16    1
    21    15    17    1
    22    18    20    1
    23    18     1    1
    24    20    25   ar
    25    23    26    1
    26    23    24   ar
    27    26    27    2
    28    25    24   ar
    29    32    29    1
    30    27    29    1
    31    27    28    1
    32    29    33    1
    33    30    28    1
    34    28    31    1
@<TRIPOS>MOLECULE
./../dock_file/temp/7f3995a203679a5c76c2dcf4ca9047ea/Camostat_Ligand_CID_2536:hmTMPRSS11_F:20230418111003/Camostat_Ligand_CID_2536:hmTMPRSS11_F_out_3.pdbqt
 33 34 0 0 0
SMALL
GASTEIGER

@<TRIPOS>ATOM
      1  O         20.2690   10.4080   13.2370 O.3     1  LIG1       -0.2750
      2  C         20.8450   11.1210   12.2310 C.ar    1  LIG1        0.0790
      3  C         20.0990   11.4650   11.1030 C.ar    1  LIG1        0.0380
      4  C         20.6890   12.1960   10.0730 C.ar    1  LIG1        0.0100
      5  C         22.0250   12.5860   10.1710 C.ar    1  LIG1       -0.0490
      6  C         22.7710   12.2430   11.2990 C.ar    1  LIG1        0.0100
      7  C         22.1800   11.5110   12.3300 C.ar    1  LIG1        0.0380
      8  C         22.6630   13.3770    9.0580 C.3     1  LIG1        0.1490
      9  C         23.1600   14.7310    9.5070 C.2     1  LIG1        0.2630
     10  O         24.3330   15.0720    9.5660 O.2     1  LIG1       -0.2650
     11  O         22.0890   15.5250    9.8410 O.3     1  LIG1       -0.3120
     12  C         22.1720   16.1980   11.0800 C.3     1  LIG1        0.2810
     13  C         20.9430   15.8910   11.9090 C.2     1  LIG1        0.2430
     14  O         20.9330   14.8690   12.6010 O.2     1  LIG1       -0.2710
     15  N         19.8840   16.7980   11.8480 N.am    1  LIG1       -0.3590
     16  C         19.8640   18.0250   11.0540 C.3     1  LIG1        0.1520
     17  C         18.6830   16.5510   12.6350 C.3     1  LIG1        0.1520
     18  C         19.4850    9.3350   12.8040 C.2     1  LIG1        0.2980
     19  O         19.9050    8.3010   12.3070 O.2     1  LIG1       -0.2590
     20  C         18.0410    9.6110   13.0090 C.ar    1  LIG1        0.0400
     21  C         17.6290   10.4230   14.0650 C.ar    1  LIG1        0.0200
     22  C         16.2720   10.6830   14.2570 C.ar    1  LIG1        0.0330
     23  C         15.3260   10.1290   13.3940 C.ar    1  LIG1        0.0750
     24  C         15.7380    9.3160   12.3370 C.ar    1  LIG1        0.0330
     25  C         17.0950    9.0570   12.1450 C.ar    1  LIG1        0.0200
     26  N         13.9650   10.3890   13.5860 N.pl3   1  LIG1       -0.0660
     27  C         13.3980   10.0030   14.7040 C.cat   1  LIG1        0.6920
     28  N         13.9940    9.3460   15.7590 N.pl3   1  LIG1       -0.2330
     29  N         12.0630   10.2400   14.9330 N.pl3   1  LIG1       -0.2330
     30  H         14.9500    9.1170   15.7190 H       1  LIG1        0.1740
     31  H         13.4620    9.1050   16.5520 H       1  LIG1        0.1740
     32  H         11.5230   10.7040   14.2540 H       1  LIG1        0.1740
     33  H         11.6490    9.9450   15.7760 H       1  LIG1        0.1740
@<TRIPOS>BOND
     1     8     9    1
     2     8     5    1
     3     9    10    2
     4     9    11    1
     5    11    12    1
     6     4     5   ar
     7     4     3   ar
     8     5     6   ar
     9    16    15    1
    10    12    13    1
    11     3     2   ar
    12     6     7   ar
    13    15    13   am
    14    15    17    1
    15    13    14    2
    16    25    24   ar
    17    25    20   ar
    18     2     7   ar
    19     2     1    1
    20    19    18    2
    21    24    23   ar
    22    18    20    1
    23    18     1    1
    24    20    21   ar
    25    23    26    1
    26    23    22   ar
    27    26    27    2
    28    21    22   ar
    29    32    29    1
    30    27    29    1
    31    27    28    1
    32    29    33    1
    33    30    28    1
    34    28    31    1
@<TRIPOS>MOLECULE
./../dock_file/temp/7f3995a203679a5c76c2dcf4ca9047ea/Camostat_Ligand_CID_2536:hmTMPRSS11_F:20230418111003/Camostat_Ligand_CID_2536:hmTMPRSS11_F_out_3.pdbqt
 33 34 0 0 0
SMALL
GASTEIGER

@<TRIPOS>ATOM
      1  O         20.3650   10.3590   13.2290 O.3     1  LIG1       -0.2750
      2  C         20.7030   11.1170   12.1510 C.ar    1  LIG1        0.0790
      3  C         19.9910   12.2830   11.8660 C.ar    1  LIG1        0.0380
      4  C         20.3380   13.0590   10.7610 C.ar    1  LIG1        0.0100
      5  C         21.3970   12.6720    9.9400 C.ar    1  LIG1       -0.0490
      6  C         22.1090   11.5060   10.2250 C.ar    1  LIG1        0.0100
      7  C         21.7620   10.7290   11.3310 C.ar    1  LIG1        0.0380
      8  C         21.7720   13.5100    8.7460 C.3     1  LIG1        0.1490
      9  C         20.7270   13.4830    7.6560 C.2     1  LIG1        0.2630
     10  O         20.1050   14.4520    7.2460 O.2     1  LIG1       -0.2650
     11  O         20.5830   12.1970    7.1910 O.3     1  LIG1       -0.3120
     12  C         21.5310   11.7670    6.2370 C.3     1  LIG1        0.2810
     13  C         22.1450   10.4570    6.6830 C.2     1  LIG1        0.2430
     14  O         21.4340    9.4480    6.7120 O.2     1  LIG1       -0.2710
     15  N         23.4960   10.4650    7.0300 N.am    1  LIG1       -0.3590
     16  C         24.3730   11.6340    6.9940 C.3     1  LIG1        0.1520
     17  C         24.1330    9.2260    7.4580 C.3     1  LIG1        0.1520
     18  C         19.5710    9.2510   12.9260 C.2     1  LIG1        0.2980
     19  O         19.9790    8.1610   12.5550 O.2     1  LIG1       -0.2590
     20  C         18.1290    9.5630   13.0980 C.ar    1  LIG1        0.0400
     21  C         17.7080   10.3510   14.1680 C.ar    1  LIG1        0.0200
     22  C         16.3540   10.6440   14.3290 C.ar    1  LIG1        0.0330
     23  C         15.4200   10.1480   13.4190 C.ar    1  LIG1        0.0750
     24  C         15.8400    9.3590   12.3480 C.ar    1  LIG1        0.0330
     25  C         17.1950    9.0660   12.1880 C.ar    1  LIG1        0.0200
     26  N         14.0620   10.4420   13.5810 N.pl3   1  LIG1       -0.0660
     27  C         13.4510   10.0400   14.6690 C.cat   1  LIG1        0.6920
     28  N         13.9970    9.3350   15.7200 N.pl3   1  LIG1       -0.2330
     29  N         12.1170   10.3090   14.8660 N.pl3   1  LIG1       -0.2330
     30  H         14.9470    9.0800   15.7010 H       1  LIG1        0.1740
     31  H         13.4350    9.0860   16.4900 H       1  LIG1        0.1740
     32  H         11.6100   10.8090   14.1870 H       1  LIG1        0.1740
     33  H         11.6700   10.0020   15.6880 H       1  LIG1        0.1740
@<TRIPOS>BOND
     1    12    13    1
     2    12    11    1
     3    13    14    2
     4    13    15   am
     5    16    15    1
     6    15    17    1
     7    11     9    1
     8    10     9    2
     9     9     8    1
    10     8     5    1
    11     5     6   ar
    12     5     4   ar
    13     6     7   ar
    14     4     3   ar
    15     7     2   ar
    16     3     2   ar
    17     2     1    1
    18    25    24   ar
    19    25    20   ar
    20    24    23   ar
    21    19    18    2
    22    18    20    1
    23    18     1    1
    24    20    21   ar
    25    23    26    1
    26    23    22   ar
    27    26    27    2
    28    21    22   ar
    29    32    29    1
    30    27    29    1
    31    27    28    1
    32    29    33    1
    33    30    28    1
    34    28    31    1
@<TRIPOS>MOLECULE
./../dock_file/temp/7f3995a203679a5c76c2dcf4ca9047ea/Camostat_Ligand_CID_2536:hmTMPRSS11_F:20230418111003/Camostat_Ligand_CID_2536:hmTMPRSS11_F_out_3.pdbqt
 33 34 0 0 0
SMALL
GASTEIGER

@<TRIPOS>ATOM
      1  O         20.3560   10.5750   13.3260 O.3     1  LIG1       -0.2750
      2  C         20.8400   11.2770   12.2650 C.ar    1  LIG1        0.0790
      3  C         20.0950   12.3250   11.7230 C.ar    1  LIG1        0.0380
      4  C         20.5920   13.0430   10.6360 C.ar    1  LIG1        0.0100
      5  C         21.8330   12.7150   10.0910 C.ar    1  LIG1       -0.0490
      6  C         22.5770   11.6670   10.6330 C.ar    1  LIG1        0.0100
      7  C         22.0810   10.9480   11.7210 C.ar    1  LIG1        0.0380
      8  C         22.3700   13.4910    8.9160 C.3     1  LIG1        0.1490
      9  C         21.4540   13.4510    7.7160 C.2     1  LIG1        0.2630
     10  O         20.7110   14.3550    7.3600 O.2     1  LIG1       -0.2650
     11  O         21.5830   12.2380    7.0800 O.3     1  LIG1       -0.3120
     12  C         20.3820   11.6070    6.6910 C.3     1  LIG1        0.2810
     13  C         20.2610   11.6300    5.1810 C.2     1  LIG1        0.2430
     14  O         21.0930   11.0140    4.5100 O.2     1  LIG1       -0.2710
     15  N         19.1980   12.3480    4.6330 N.am    1  LIG1       -0.3590
     16  C         18.1850   13.0770    5.3940 C.3     1  LIG1        0.1520
     17  C         19.0350   12.3930    3.1850 C.3     1  LIG1        0.1520
     18  C         19.6130    9.4450   12.9770 C.2     1  LIG1        0.2980
     19  O         20.0720    8.3840   12.5820 O.2     1  LIG1       -0.2590
     20  C         18.1560    9.6930   13.1310 C.ar    1  LIG1        0.0400
     21  C         17.6940   10.5150   14.1580 C.ar    1  LIG1        0.0200
     22  C         16.3260   10.7480   14.3020 C.ar    1  LIG1        0.0330
     23  C         15.4210   10.1590   13.4190 C.ar    1  LIG1        0.0750
     24  C         15.8830    9.3360   12.3920 C.ar    1  LIG1        0.0330
     25  C         17.2510    9.1030   12.2480 C.ar    1  LIG1        0.0200
     26  N         14.0490   10.3930   13.5640 N.pl3   1  LIG1       -0.0660
     27  C         13.4530   10.0050   14.6660 C.cat   1  LIG1        0.6920
     28  N         14.0260    9.3700   15.7460 N.pl3   1  LIG1       -0.2330
     29  N         12.1060   10.2170   14.8470 N.pl3   1  LIG1       -0.2330
     30  H         14.9870    9.1600   15.7400 H       1  LIG1        0.1740
     31  H         13.4720    9.1250   16.5230 H       1  LIG1        0.1740
     32  H         11.5790   10.6640   14.1460 H       1  LIG1        0.1740
     33  H         11.6700    9.9210   15.6790 H       1  LIG1        0.1740
@<TRIPOS>BOND
     1    17    15    1
     2    14    13    2
     3    15    13   am
     4    15    16    1
     5    13    12    1
     6    12    11    1
     7    11     9    1
     8    10     9    2
     9     9     8    1
    10     8     5    1
    11     5     6   ar
    12     5     4   ar
    13     6     7   ar
    14     4     3   ar
    15     7     2   ar
    16     3     2   ar
    17    25    24   ar
    18    25    20   ar
    19     2     1    1
    20    24    23   ar
    21    19    18    2
    22    18    20    1
    23    18     1    1
    24    20    21   ar
    25    23    26    1
    26    23    22   ar
    27    26    27    2
    28    32    29    1
    29    21    22   ar
    30    27    29    1
    31    27    28    1
    32    29    33    1
    33    30    28    1
    34    28    31    1
@<TRIPOS>MOLECULE
./../dock_file/temp/7f3995a203679a5c76c2dcf4ca9047ea/Camostat_Ligand_CID_2536:hmTMPRSS11_F:20230418111003/Camostat_Ligand_CID_2536:hmTMPRSS11_F_out_3.pdbqt
 33 34 0 0 0
SMALL
GASTEIGER

@<TRIPOS>ATOM
      1  O          8.4680   19.6060   14.6010 O.3     1  LIG1       -0.2750
      2  C          9.0820   19.6220   13.3860 C.ar    1  LIG1        0.0790
      3  C          8.5920   20.4380   12.3670 C.ar    1  LIG1        0.0380
      4  C          9.2210   20.4550   11.1230 C.ar    1  LIG1        0.0100
      5  C         10.3420   19.6560   10.8970 C.ar    1  LIG1       -0.0490
      6  C         10.8330   18.8390   11.9170 C.ar    1  LIG1        0.0100
      7  C         10.2030   18.8230   13.1610 C.ar    1  LIG1        0.0380
      8  C         11.0220   19.6730    9.5530 C.3     1  LIG1        0.1490
      9  C         10.3100   18.8300    8.5210 C.2     1  LIG1        0.2630
     10  O          9.9930   17.6570    8.6610 O.2     1  LIG1       -0.2650
     11  O         10.0710   19.5850    7.3980 O.3     1  LIG1       -0.3120
     12  C          8.8280   20.2530    7.3480 C.3     1  LIG1        0.2810
     13  C          7.9400   19.6000    6.3090 C.2     1  LIG1        0.2430
     14  O          7.2840   18.6060    6.6310 O.2     1  LIG1       -0.2710
     15  N          7.9090   20.1740    5.0380 N.am    1  LIG1       -0.3590
     16  C          8.6590   21.3580    4.6240 C.3     1  LIG1        0.1520
     17  C          7.0630   19.5860    4.0070 C.3     1  LIG1        0.1520
     18  C          9.2390   20.1290   15.6420 C.2     1  LIG1        0.2980
     19  O          9.7320   19.4860   16.5570 O.2     1  LIG1       -0.2590
     20  C          9.3830   21.6010   15.5140 C.ar    1  LIG1        0.0400
     21  C         10.6180   22.1550   15.1790 C.ar    1  LIG1        0.0200
     22  C         10.7530   23.5380   15.0580 C.ar    1  LIG1        0.0330
     23  C          9.6530   24.3680   15.2740 C.ar    1  LIG1        0.0750
     24  C          8.4170   23.8140   15.6090 C.ar    1  LIG1        0.0330
     25  C          8.2820   22.4310   15.7300 C.ar    1  LIG1        0.0200
     26  N          9.7880   25.7550   15.1530 N.pl3   1  LIG1       -0.0660
     27  C          9.5900   26.3110   13.9820 C.cat   1  LIG1        0.6920
     28  N          9.2520   25.6800   12.8040 N.pl3   1  LIG1       -0.2330
     29  N          9.7130   27.6710   13.8210 N.pl3   1  LIG1       -0.2330
     30  H          9.1350   24.7040   12.7850 H       1  LIG1        0.1740
     31  H          9.1300   26.2070   11.9810 H       1  LIG1        0.1740
     32  H          9.9510   28.2380   14.5890 H       1  LIG1        0.1740
     33  H          9.5620   28.0770   12.9370 H       1  LIG1        0.1740
@<TRIPOS>BOND
     1    17    15    1
     2    16    15    1
     3    15    13   am
     4    13    14    2
     5    13    12    1
     6    12    11    1
     7    11     9    1
     8     9    10    2
     9     9     8    1
    10     8     5    1
    11     5     4   ar
    12     5     6   ar
    13     4     3   ar
    14     6     7   ar
    15    31    28    1
    16     3     2   ar
    17    30    28    1
    18    28    27    1
    19    33    29    1
    20     7     2   ar
    21     2     1    1
    22    29    27    1
    23    29    32    1
    24    27    26    2
    25     1    18    1
    26    22    21   ar
    27    22    23   ar
    28    26    23    1
    29    21    20   ar
    30    23    24   ar
    31    20    18    1
    32    20    25   ar
    33    24    25   ar
    34    18    19    2
@<TRIPOS>MOLECULE
./../dock_file/temp/7f3995a203679a5c76c2dcf4ca9047ea/Camostat_Ligand_CID_2536:hmTMPRSS11_F:20230418111003/Camostat_Ligand_CID_2536:hmTMPRSS11_F_out_3.pdbqt
 33 34 0 0 0
SMALL
GASTEIGER

@<TRIPOS>ATOM
      1  O          8.6110   22.1290   11.7820 O.3     1  LIG1       -0.2750
      2  C          9.0960   21.2360   10.8770 C.ar    1  LIG1        0.0790
      3  C          9.9910   20.2450   11.2830 C.ar    1  LIG1        0.0380
      4  C         10.4870   19.3310   10.3550 C.ar    1  LIG1        0.0100
      5  C         10.0880   19.4050    9.0200 C.ar    1  LIG1       -0.0490
      6  C          9.1930   20.3950    8.6140 C.ar    1  LIG1        0.0100
      7  C          8.6960   21.3100    9.5430 C.ar    1  LIG1        0.0380
      8  C         10.6240   18.4170    8.0170 C.3     1  LIG1        0.1490
      9  C         10.8820   19.0330    6.6620 C.2     1  LIG1        0.2630
     10  O         10.0650   19.1230    5.7570 O.2     1  LIG1       -0.2650
     11  O         12.1800   19.4820    6.6020 O.3     1  LIG1       -0.3120
     12  C         13.0090   18.8690    5.6370 C.3     1  LIG1        0.2810
     13  C         14.1060   18.0890    6.3300 C.2     1  LIG1        0.2430
     14  O         14.9860   18.7100    6.9330 O.2     1  LIG1       -0.2710
     15  N         14.0520   16.6970    6.2530 N.am    1  LIG1       -0.3590
     16  C         13.0200   15.9260    5.5630 C.3     1  LIG1        0.1520
     17  C         15.0810   15.9020    6.9110 C.3     1  LIG1        0.1520
     18  C          7.3640   21.7900   12.3120 C.2     1  LIG1        0.2980
     19  O          6.2810   22.0550   11.8120 O.2     1  LIG1       -0.2590
     20  C          7.5080   21.0640   13.6000 C.ar    1  LIG1        0.0400
     21  C          7.9800   21.7330   14.7280 C.ar    1  LIG1        0.0200
     22  C          8.1150   21.0510   15.9380 C.ar    1  LIG1        0.0330
     23  C          7.7800   19.7000   16.0190 C.ar    1  LIG1        0.0750
     24  C          7.3070   19.0300   14.8900 C.ar    1  LIG1        0.0330
     25  C          7.1720   19.7120   13.6800 C.ar    1  LIG1        0.0200
     26  N          7.9150   19.0170   17.2310 N.pl3   1  LIG1       -0.0660
     27  C          8.9210   18.1890   17.3840 C.cat   1  LIG1        0.6920
     28  N          9.9050   17.8930   16.4640 N.pl3   1  LIG1       -0.2330
     29  N          9.0910   17.4980   18.5600 N.pl3   1  LIG1       -0.2330
     30  H          9.8960   18.3220   15.5790 H       1  LIG1        0.1740
     31  H         10.6140   17.2500   16.6940 H       1  LIG1        0.1740
     32  H          8.4540   17.6220   19.3000 H       1  LIG1        0.1740
     33  H          9.8500   16.8800   18.6620 H       1  LIG1        0.1740
@<TRIPOS>BOND
     1    16    15    1
     2    12    13    1
     3    12    11    1
     4    10     9    2
     5    15    13   am
     6    15    17    1
     7    13    14    2
     8    11     9    1
     9     9     8    1
    10     8     5    1
    11     6     5   ar
    12     6     7   ar
    13     5     4   ar
    14     7     2   ar
    15     4     3   ar
    16     2     3   ar
    17     2     1    1
    18     1    18    1
    19    19    18    2
    20    18    20    1
    21    20    25   ar
    22    20    21   ar
    23    25    24   ar
    24    21    22   ar
    25    24    23   ar
    26    30    28    1
    27    22    23   ar
    28    23    26    1
    29    28    31    1
    30    28    27    1
    31    26    27    2
    32    27    29    1
    33    29    33    1
    34    29    32    1
@<TRIPOS>MOLECULE
./../dock_file/temp/7f3995a203679a5c76c2dcf4ca9047ea/Camostat_Ligand_CID_2536:hmTMPRSS11_F:20230418111003/Camostat_Ligand_CID_2536:hmTMPRSS11_F_out_3.pdbqt
 33 34 0 0 0
SMALL
GASTEIGER

@<TRIPOS>ATOM
      1  O         22.4140   11.3390   12.2160 O.3     1  LIG1       -0.2750
      2  C         22.2930   11.5610   10.8790 C.ar    1  LIG1        0.0790
      3  C         22.2980   12.8650   10.3840 C.ar    1  LIG1        0.0380
      4  C         22.1730   13.0910    9.0140 C.ar    1  LIG1        0.0100
      5  C         22.0450   12.0140    8.1370 C.ar    1  LIG1       -0.0490
      6  C         22.0400   10.7090    8.6320 C.ar    1  LIG1        0.0100
      7  C         22.1650   10.4830   10.0030 C.ar    1  LIG1        0.0380
      8  C         21.9110   12.2580    6.6570 C.3     1  LIG1        0.1490
      9  C         20.6830   11.6090    6.0610 C.2     1  LIG1        0.2630
     10  O         20.6410   10.4890    5.5720 O.2     1  LIG1       -0.2650
     11  O         19.6170   12.4710    6.1540 O.3     1  LIG1       -0.3120
     12  C         19.8680   13.8150    5.7990 C.3     1  LIG1        0.2810
     13  C         19.0810   14.7370    6.7070 C.2     1  LIG1        0.2430
     14  O         19.4950   14.9370    7.8520 O.2     1  LIG1       -0.2710
     15  N         17.9250   15.3200    6.1860 N.am    1  LIG1       -0.3590
     16  C         17.4120   15.1190    4.8320 C.3     1  LIG1        0.1520
     17  C         17.1400   16.2210    7.0180 C.3     1  LIG1        0.1520
     18  C         21.5840   12.1350   13.0090 C.2     1  LIG1        0.2980
     19  O         21.8910   13.2050   13.5120 O.2     1  LIG1       -0.2590
     20  C         20.2510   11.5060   13.1880 C.ar    1  LIG1        0.0400
     21  C         19.9140   10.9200   14.4080 C.ar    1  LIG1        0.0200
     22  C         18.6620   10.3300   14.5760 C.ar    1  LIG1        0.0330
     23  C         17.7460   10.3230   13.5250 C.ar    1  LIG1        0.0750
     24  C         18.0830   10.9080   12.3030 C.ar    1  LIG1        0.0330
     25  C         19.3350   11.4990   12.1350 C.ar    1  LIG1        0.0200
     26  N         16.4910    9.7300   13.6940 N.pl3   1  LIG1       -0.0660
     27  C         15.4680   10.4900   14.0060 C.cat   1  LIG1        0.6920
     28  N         15.4700   11.8550   14.1980 N.pl3   1  LIG1       -0.2330
     29  N         14.2170    9.9470   14.1810 N.pl3   1  LIG1       -0.2330
     30  H         16.3060   12.3640   14.1020 H       1  LIG1        0.1740
     31  H         14.6340   12.3200   14.4320 H       1  LIG1        0.1740
     32  H         14.0810    8.9780   14.0710 H       1  LIG1        0.1740
     33  H         13.4570   10.5280   14.4150 H       1  LIG1        0.1740
@<TRIPOS>BOND
     1    16    15    1
     2    10     9    2
     3    12    11    1
     4    12    13    1
     5     9    11    1
     6     9     8    1
     7    15    13   am
     8    15    17    1
     9     8     5    1
    10    13    14    2
    11     5     6   ar
    12     5     4   ar
    13     6     7   ar
    14     4     3   ar
    15     7     2   ar
    16     3     2   ar
    17     2     1    1
    18    25    24   ar
    19    25    20   ar
    20     1    18    1
    21    24    23   ar
    22    18    20    1
    23    18    19    2
    24    20    21   ar
    25    23    26    1
    26    23    22   ar
    27    26    27    2
    28    27    29    1
    29    27    28    1
    30    32    29    1
    31    30    28    1
    32    29    33    1
    33    28    31    1
    34    21    22   ar
@<TRIPOS>MOLECULE
./../dock_file/temp/7f3995a203679a5c76c2dcf4ca9047ea/Camostat_Ligand_CID_2536:hmTMPRSS11_F:20230418111003/Camostat_Ligand_CID_2536:hmTMPRSS11_F_out_3.pdbqt
 33 34 0 0 0
SMALL
GASTEIGER

@<TRIPOS>ATOM
      1  O         11.6260   24.7330   23.3680 O.3     1  LIG1       -0.2750
      2  C         10.2740   24.6590   23.2330 C.ar    1  LIG1        0.0790
      3  C          9.4530   24.7860   24.3540 C.ar    1  LIG1        0.0380
      4  C          8.0670   24.7110   24.2150 C.ar    1  LIG1        0.0100
      5  C          7.5020   24.5100   22.9550 C.ar    1  LIG1       -0.0490
      6  C          8.3240   24.3830   21.8350 C.ar    1  LIG1        0.0100
      7  C          9.7100   24.4580   21.9740 C.ar    1  LIG1        0.0380
      8  C          6.0050   24.4280   22.8050 C.3     1  LIG1        0.1490
      9  C          5.5430   23.1170   22.2130 C.2     1  LIG1        0.2630
     10  O          5.8840   22.0070   22.5970 O.2     1  LIG1       -0.2650
     11  O          4.6760   23.3620   21.1750 O.3     1  LIG1       -0.3120
     12  C          4.9640   24.4900   20.3740 C.3     1  LIG1        0.2810
     13  C          5.9070   24.0940   19.2580 C.2     1  LIG1        0.2430
     14  O          5.9570   22.9100   18.9140 O.2     1  LIG1       -0.2710
     15  N          6.6670   25.1060   18.6690 N.am    1  LIG1       -0.3590
     16  C          6.6240   26.5200   19.0370 C.3     1  LIG1        0.1520
     17  C          7.5820   24.7760   17.5840 C.3     1  LIG1        0.1520
     18  C         12.2770   23.4980   23.3170 C.2     1  LIG1        0.2980
     19  O         12.0780   22.5550   24.0680 O.2     1  LIG1       -0.2590
     20  C         13.2800   23.4660   22.2220 C.ar    1  LIG1        0.0400
     21  C         13.3580   24.5240   21.3170 C.ar    1  LIG1        0.0200
     22  C         14.3010   24.4950   20.2890 C.ar    1  LIG1        0.0330
     23  C         15.1640   23.4070   20.1650 C.ar    1  LIG1        0.0750
     24  C         15.0860   22.3480   21.0700 C.ar    1  LIG1        0.0330
     25  C         14.1440   22.3770   22.0980 C.ar    1  LIG1        0.0200
     26  N         16.1090   23.3770   19.1340 N.pl3   1  LIG1       -0.0660
     27  C         17.3390   23.7530   19.3910 C.cat   1  LIG1        0.6920
     28  N         17.8440   24.1920   20.5960 N.pl3   1  LIG1       -0.2330
     29  N         18.2980   23.7380   18.4050 N.pl3   1  LIG1       -0.2330
     30  H         17.2570   24.2490   21.3830 H       1  LIG1        0.1740
     31  H         18.7920   24.4490   20.6670 H       1  LIG1        0.1740
     32  H         18.0650   23.4430   17.4960 H       1  LIG1        0.1740
     33  H         19.2180   24.0220   18.6100 H       1  LIG1        0.1740
@<TRIPOS>BOND
     1    32    29    1
     2    17    15    1
     3    29    33    1
     4    29    27    1
     5    15    16    1
     6    15    13   am
     7    14    13    2
     8    26    27    2
     9    26    23    1
    10    13    12    1
    11    27    28    1
    12    23    22   ar
    13    23    24   ar
    14    22    21   ar
    15    12    11    1
    16    28    31    1
    17    28    30    1
    18    24    25   ar
    19    11     9    1
    20    21    20   ar
    21     6     7   ar
    22     6     5   ar
    23     7     2   ar
    24    25    20   ar
    25     9    10    2
    26     9     8    1
    27    20    18    1
    28     8     5    1
    29     5     4   ar
    30     2     1    1
    31     2     3   ar
    32    18     1    1
    33    18    19    2
    34     4     3   ar
@<TRIPOS>MOLECULE
./../dock_file/temp/7f3995a203679a5c76c2dcf4ca9047ea/Camostat_Ligand_CID_2536:hmTMPRSS11_F:20230418111003/Camostat_Ligand_CID_2536:hmTMPRSS11_F_out_3.pdbqt
 33 34 0 0 0
SMALL
GASTEIGER

@<TRIPOS>ATOM
      1  O         12.4330   20.0870    9.6230 O.3     1  LIG1       -0.2750
      2  C         11.4500   20.0310    8.6840 C.ar    1  LIG1        0.0790
      3  C         11.2470   21.1070    7.8200 C.ar    1  LIG1        0.0380
      4  C         10.2390   21.0490    6.8580 C.ar    1  LIG1        0.0100
      5  C          9.4350   19.9140    6.7580 C.ar    1  LIG1       -0.0490
      6  C          9.6370   18.8370    7.6220 C.ar    1  LIG1        0.0100
      7  C         10.6450   18.8960    8.5850 C.ar    1  LIG1        0.0380
      8  C          8.3460   19.8500    5.7180 C.3     1  LIG1        0.1490
      9  C          6.9920   19.5190    6.3020 C.2     1  LIG1        0.2630
     10  O          6.4940   18.4030    6.3460 O.2     1  LIG1       -0.2650
     11  O          6.4050   20.6670    6.7790 O.3     1  LIG1       -0.3120
     12  C          5.8170   20.5810    8.0600 C.3     1  LIG1        0.2810
     13  C          5.8150   21.9490    8.7110 C.2     1  LIG1        0.2430
     14  O          4.8760   22.7150    8.4780 O.2     1  LIG1       -0.2710
     15  N          6.8830   22.2610    9.5530 N.am    1  LIG1       -0.3590
     16  C          8.0030   21.3760    9.8650 C.3     1  LIG1        0.1520
     17  C          6.9200   23.5620   10.2090 C.3     1  LIG1        0.1520
     18  C         12.2890   21.1280   10.5440 C.2     1  LIG1        0.2980
     19  O         12.8060   22.2310   10.4600 O.2     1  LIG1       -0.2590
     20  C         11.4220   20.7220   11.6800 C.ar    1  LIG1        0.0400
     21  C         10.5970   21.6610   12.2980 C.ar    1  LIG1        0.0200
     22  C          9.7830   21.2790   13.3640 C.ar    1  LIG1        0.0330
     23  C          9.7940   19.9580   13.8130 C.ar    1  LIG1        0.0750
     24  C         10.6190   19.0190   13.1950 C.ar    1  LIG1        0.0330
     25  C         11.4340   19.4000   12.1280 C.ar    1  LIG1        0.0200
     26  N          8.9770   19.5760   14.8820 N.pl3   1  LIG1       -0.0660
     27  C          7.7760   19.1130   14.6290 C.cat   1  LIG1        0.6920
     28  N          7.1890   18.9490   13.3930 N.pl3   1  LIG1       -0.2330
     29  N          6.9430   18.7260   15.6520 N.pl3   1  LIG1       -0.2330
     30  H          7.6830   19.1910   12.5770 H       1  LIG1        0.1740
     31  H          6.2740   18.5910   13.3270 H       1  LIG1        0.1740
     32  H          7.2450   18.7940   16.5850 H       1  LIG1        0.1740
     33  H          6.0430   18.3800   15.4480 H       1  LIG1        0.1740
@<TRIPOS>BOND
     1     8     9    1
     2     8     5    1
     3     9    10    2
     4     9    11    1
     5     5     4   ar
     6     5     6   ar
     7    11    12    1
     8     4     3   ar
     9     6     7   ar
    10     3     2   ar
    11    12    13    1
    12    14    13    2
    13     7     2   ar
    14     2     1    1
    15    13    15   am
    16    15    16    1
    17    15    17    1
    18     1    18    1
    19    19    18    2
    20    18    20    1
    21    20    25   ar
    22    20    21   ar
    23    25    24   ar
    24    21    22   ar
    25    30    28    1
    26    24    23   ar
    27    31    28    1
    28    22    23   ar
    29    28    27    1
    30    23    26    1
    31    27    26    2
    32    27    29    1
    33    33    29    1
    34    29    32    1
