@<TRIPOS>MOLECULE
./../dock_file/temp/7f3995a203679a5c76c2dcf4ca9047ea/Camostat_Ligand_CID_2536:hmTMPRSS11_F:20230418111003/Camostat_Ligand_CID_2536:hmTMPRSS11_F_out_1.pdbqt
 33 34 0 0 0
SMALL
GASTEIGER

@<TRIPOS>ATOM
      1  O         19.0800    9.9600   11.1290 O.3     1  LIG1       -0.2750
      2  C         20.0590   10.8920   11.2910 C.ar    1  LIG1        0.0790
      3  C         21.4000   10.5160   11.2120 C.ar    1  LIG1        0.0380
      4  C         22.4020   11.4700   11.3780 C.ar    1  LIG1        0.0100
      5  C         22.0650   12.8020   11.6230 C.ar    1  LIG1       -0.0490
      6  C         20.7240   13.1780   11.7020 C.ar    1  LIG1        0.0100
      7  C         19.7210   12.2220   11.5350 C.ar    1  LIG1        0.0380
      8  C         23.1480   13.8340   11.8020 C.3     1  LIG1        0.1490
      9  C         22.8810   14.7730   12.9550 C.2     1  LIG1        0.2630
     10  O         22.9840   15.9910   12.9150 O.2     1  LIG1       -0.2650
     11  O         22.5030   14.0480   14.0600 O.3     1  LIG1       -0.3120
     12  C         23.5360   13.3760   14.7490 C.3     1  LIG1        0.2810
     13  C         23.0570   12.9880   16.1330 C.2     1  LIG1        0.2430
     14  O         21.9940   12.3710   16.2410 O.2     1  LIG1       -0.2710
     15  N         23.8610   13.3480   17.2150 N.am    1  LIG1       -0.3590
     16  C         25.1320   14.0640   17.1260 C.3     1  LIG1        0.1520
     17  C         23.4460   12.9890   18.5650 C.3     1  LIG1        0.1520
     18  C         18.6910    9.3230   12.3100 C.2     1  LIG1        0.2980
     19  O         19.3800    8.5570   12.9660 O.2     1  LIG1       -0.2590
     20  C         17.2980    9.6820   12.6780 C.ar    1  LIG1        0.0400
     21  C         17.0600   10.5670   13.7280 C.ar    1  LIG1        0.0200
     22  C         15.7520   10.9050   14.0740 C.ar    1  LIG1        0.0330
     23  C         14.6810   10.3560   13.3690 C.ar    1  LIG1        0.0750
     24  C         14.9180    9.4700   12.3180 C.ar    1  LIG1        0.0330
     25  C         16.2260    9.1320   11.9730 C.ar    1  LIG1        0.0200
     26  N         13.3680   10.6940   13.7160 N.pl3   1  LIG1       -0.0660
     27  C         12.8490   10.1840   14.8070 C.cat   1  LIG1        0.6920
     28  N         13.4550    9.3220   15.6950 N.pl3   1  LIG1       -0.2330
     29  N         11.5630   10.4920   15.1830 N.pl3   1  LIG1       -0.2330
     30  H         14.3790    9.0230   15.5390 H       1  LIG1        0.1740
     31  H         12.9610    9.0030   16.4860 H       1  LIG1        0.1740
     32  H         11.0210   11.1010   14.6320 H       1  LIG1        0.1740
     33  H         11.1850   10.1030   16.0050 H       1  LIG1        0.1740
@<TRIPOS>BOND
     1     1     2    1
     2     1    18    1
     3     3     2   ar
     4     3     4   ar
     5     2     7   ar
     6     4     5   ar
     7     7     6   ar
     8     5     6   ar
     9     5     8    1
    10     8     9    1
    11    25    24   ar
    12    25    20   ar
    13    18    20    1
    14    18    19    2
    15    24    23   ar
    16    20    21   ar
    17    10     9    2
    18     9    11    1
    19    23    26    1
    20    23    22   ar
    21    26    27    2
    22    21    22   ar
    23    11    12    1
    24    32    29    1
    25    12    13    1
    26    27    29    1
    27    27    28    1
    28    29    33    1
    29    30    28    1
    30    28    31    1
    31    13    14    2
    32    13    15   am
    33    16    15    1
    34    15    17    1
@<TRIPOS>MOLECULE
./../dock_file/temp/7f3995a203679a5c76c2dcf4ca9047ea/Camostat_Ligand_CID_2536:hmTMPRSS11_F:20230418111003/Camostat_Ligand_CID_2536:hmTMPRSS11_F_out_1.pdbqt
 33 34 0 0 0
SMALL
GASTEIGER

@<TRIPOS>ATOM
      1  O         20.3670   10.4120   13.1870 O.3     1  LIG1       -0.2750
      2  C         20.5610   11.2460   12.1300 C.ar    1  LIG1        0.0790
      3  C         19.9370   12.4940   12.1010 C.ar    1  LIG1        0.0380
      4  C         20.1370   13.3490   11.0180 C.ar    1  LIG1        0.0100
      5  C         20.9610   12.9570    9.9630 C.ar    1  LIG1       -0.0490
      6  C         21.5850   11.7100    9.9910 C.ar    1  LIG1        0.0100
      7  C         21.3850   10.8550   11.0750 C.ar    1  LIG1        0.0380
      8  C         21.1770   13.8810    8.7920 C.3     1  LIG1        0.1490
      9  C         20.3650   15.1520    8.8870 C.2     1  LIG1        0.2630
     10  O         19.2490   15.3160    8.4150 O.2     1  LIG1       -0.2650
     11  O         21.0750   16.0980    9.5870 O.3     1  LIG1       -0.3120
     12  C         20.3290   17.1780   10.1080 C.3     1  LIG1        0.2810
     13  C         19.8930   16.8610   11.5230 C.2     1  LIG1        0.2430
     14  O         20.7570   16.6270   12.3720 O.2     1  LIG1       -0.2710
     15  N         18.5230   16.8610   11.7880 N.am    1  LIG1       -0.3590
     16  C         17.4710   17.1480   10.8150 C.3     1  LIG1        0.1520
     17  C         18.0550   16.5700   13.1370 C.3     1  LIG1        0.1520
     18  C         19.5850    9.2910   12.8980 C.2     1  LIG1        0.2980
     19  O         20.0060    8.2040   12.5320 O.2     1  LIG1       -0.2590
     20  C         18.1410    9.5850   13.0770 C.ar    1  LIG1        0.0400
     21  C         17.7130   10.3460   14.1640 C.ar    1  LIG1        0.0200
     22  C         16.3560   10.6230   14.3320 C.ar    1  LIG1        0.0330
     23  C         15.4270   10.1370   13.4120 C.ar    1  LIG1        0.0750
     24  C         15.8540    9.3760   12.3240 C.ar    1  LIG1        0.0330
     25  C         17.2110    9.0990   12.1570 C.ar    1  LIG1        0.0200
     26  N         14.0660   10.4150   13.5800 N.pl3   1  LIG1       -0.0660
     27  C         13.4680   10.0140   14.6770 C.cat   1  LIG1        0.6920
     28  N         14.0300    9.3250   15.7300 N.pl3   1  LIG1       -0.2330
     29  N         12.1320   10.2670   14.8800 N.pl3   1  LIG1       -0.2330
     30  H         14.9830    9.0810   15.7060 H       1  LIG1        0.1740
     31  H         13.4760    9.0750   16.5050 H       1  LIG1        0.1740
     32  H         11.6140   10.7540   14.2010 H       1  LIG1        0.1740
     33  H         11.6940    9.9600   15.7080 H       1  LIG1        0.1740
@<TRIPOS>BOND
     1    10     9    2
     2     8     9    1
     3     8     5    1
     4     9    11    1
     5    11    12    1
     6     5     6   ar
     7     5     4   ar
     8     6     7   ar
     9    12    13    1
    10    16    15    1
    11     4     3   ar
    12     7     2   ar
    13    13    15   am
    14    13    14    2
    15    15    17    1
    16     3     2   ar
    17     2     1    1
    18    25    24   ar
    19    25    20   ar
    20    24    23   ar
    21    19    18    2
    22    18    20    1
    23    18     1    1
    24    20    21   ar
    25    23    26    1
    26    23    22   ar
    27    26    27    2
    28    21    22   ar
    29    32    29    1
    30    27    29    1
    31    27    28    1
    32    29    33    1
    33    30    28    1
    34    28    31    1
@<TRIPOS>MOLECULE
./../dock_file/temp/7f3995a203679a5c76c2dcf4ca9047ea/Camostat_Ligand_CID_2536:hmTMPRSS11_F:20230418111003/Camostat_Ligand_CID_2536:hmTMPRSS11_F_out_1.pdbqt
 33 34 0 0 0
SMALL
GASTEIGER

@<TRIPOS>ATOM
      1  O         19.0940   10.0100   11.1670 O.3     1  LIG1       -0.2750
      2  C         20.0080   10.9650   11.4910 C.ar    1  LIG1        0.0790
      3  C         21.3620   10.6380   11.5680 C.ar    1  LIG1        0.0380
      4  C         22.2980   11.6160   11.9000 C.ar    1  LIG1        0.0100
      5  C         21.8810   12.9230   12.1550 C.ar    1  LIG1       -0.0490
      6  C         20.5270   13.2500   12.0780 C.ar    1  LIG1        0.0100
      7  C         19.5900   12.2710   11.7450 C.ar    1  LIG1        0.0380
      8  C         22.8930   13.9800   12.5130 C.3     1  LIG1        0.1490
      9  C         23.3040   13.9330   13.9660 C.2     1  LIG1        0.2630
     10  O         22.6700   13.3990   14.8650 O.2     1  LIG1       -0.2650
     11  O         24.5040   14.5840   14.1250 O.3     1  LIG1       -0.3120
     12  C         24.5140   15.9610   13.8110 C.3     1  LIG1        0.2810
     13  C         24.4830   16.7740   15.0880 C.2     1  LIG1        0.2430
     14  O         25.0690   16.3390   16.0840 O.2     1  LIG1       -0.2710
     15  N         23.7930   17.9870   15.0610 N.am    1  LIG1       -0.3590
     16  C         23.1020   18.5420   13.8990 C.3     1  LIG1        0.1520
     17  C         23.7430   18.8090   16.2630 C.3     1  LIG1        0.1520
     18  C         18.6480    9.2490   12.2510 C.2     1  LIG1        0.2980
     19  O         19.2880    8.3800   12.8220 O.2     1  LIG1       -0.2590
     20  C         17.2610    9.6190   12.6300 C.ar    1  LIG1        0.0400
     21  C         17.0390   10.5090   13.6810 C.ar    1  LIG1        0.0200
     22  C         15.7360   10.8560   14.0370 C.ar    1  LIG1        0.0330
     23  C         14.6540   10.3140   13.3430 C.ar    1  LIG1        0.0750
     24  C         14.8760    9.4230   12.2920 C.ar    1  LIG1        0.0330
     25  C         16.1790    9.0760   11.9360 C.ar    1  LIG1        0.0200
     26  N         13.3470   10.6620   13.7000 N.pl3   1  LIG1       -0.0660
     27  C         12.8440   10.1810   14.8110 C.cat   1  LIG1        0.6920
     28  N         13.4620    9.3400   15.7110 N.pl3   1  LIG1       -0.2330
     29  N         11.5640   10.4990   15.1980 N.pl3   1  LIG1       -0.2330
     30  H         14.3830    9.0360   15.5490 H       1  LIG1        0.1740
     31  H         12.9790    9.0420   16.5170 H       1  LIG1        0.1740
     32  H         11.0150   11.0950   14.6400 H       1  LIG1        0.1740
     33  H         11.1970   10.1320   16.0350 H       1  LIG1        0.1740
@<TRIPOS>BOND
     1     1     2    1
     2     1    18    1
     3     2     3   ar
     4     2     7   ar
     5     3     4   ar
     6     7     6   ar
     7     4     5   ar
     8    25    24   ar
     9    25    20   ar
    10     6     5   ar
    11     5     8    1
    12    18    20    1
    13    18    19    2
    14    24    23   ar
    15     8     9    1
    16    20    21   ar
    17    23    26    1
    18    23    22   ar
    19    21    22   ar
    20    26    27    2
    21    12    11    1
    22    12    13    1
    23    16    15    1
    24     9    11    1
    25     9    10    2
    26    32    29    1
    27    27    29    1
    28    27    28    1
    29    15    13   am
    30    15    17    1
    31    13    14    2
    32    29    33    1
    33    30    28    1
    34    28    31    1
@<TRIPOS>MOLECULE
./../dock_file/temp/7f3995a203679a5c76c2dcf4ca9047ea/Camostat_Ligand_CID_2536:hmTMPRSS11_F:20230418111003/Camostat_Ligand_CID_2536:hmTMPRSS11_F_out_1.pdbqt
 33 34 0 0 0
SMALL
GASTEIGER

@<TRIPOS>ATOM
      1  O         20.3350   10.3450   13.2760 O.3     1  LIG1       -0.2750
      2  C         20.7060   11.1300   12.2280 C.ar    1  LIG1        0.0790
      3  C         20.0030   12.3030   11.9510 C.ar    1  LIG1        0.0380
      4  C         20.3830   13.1070   10.8770 C.ar    1  LIG1        0.0100
      5  C         21.4680   12.7390   10.0800 C.ar    1  LIG1       -0.0490
      6  C         22.1700   11.5660   10.3570 C.ar    1  LIG1        0.0100
      7  C         21.7900   10.7620   11.4320 C.ar    1  LIG1        0.0380
      8  C         21.8790   13.6080    8.9200 C.3     1  LIG1        0.1490
      9  C         20.9060   13.5490    7.7660 C.2     1  LIG1        0.2630
     10  O         20.3470   14.5120    7.2600 O.2     1  LIG1       -0.2650
     11  O         20.7430   12.2430    7.3680 O.3     1  LIG1       -0.3120
     12  C         21.6420   11.7730    6.3860 C.3     1  LIG1        0.2810
     13  C         22.2090   10.4350    6.8120 C.2     1  LIG1        0.2430
     14  O         21.4800    9.4400    6.7690 O.2     1  LIG1       -0.2710
     15  N         23.5420   10.4040    7.2240 N.am    1  LIG1       -0.3590
     16  C         24.4400   11.5560    7.2740 C.3     1  LIG1        0.1520
     17  C         24.1350    9.1380    7.6360 C.3     1  LIG1        0.1520
     18  C         19.5450    9.2480   12.9220 C.2     1  LIG1        0.2980
     19  O         19.9590    8.1750   12.5120 O.2     1  LIG1       -0.2590
     20  C         18.1010    9.5520   13.0890 C.ar    1  LIG1        0.0400
     21  C         17.1710    9.0350   12.1880 C.ar    1  LIG1        0.0200
     22  C         15.8140    9.3200   12.3460 C.ar    1  LIG1        0.0330
     23  C         15.3880   10.1230   13.4040 C.ar    1  LIG1        0.0750
     24  C         16.3190   10.6410   14.3050 C.ar    1  LIG1        0.0330
     25  C         17.6750   10.3560   14.1470 C.ar    1  LIG1        0.0200
     26  N         14.0280   10.4090   13.5620 N.pl3   1  LIG1       -0.0660
     27  C         13.4280   10.0430   14.6690 C.cat   1  LIG1        0.6920
     28  N         13.9870    9.3850   15.7430 N.pl3   1  LIG1       -0.2330
     29  N         12.0920   10.3050   14.8630 N.pl3   1  LIG1       -0.2330
     30  H         14.9390    9.1390   15.7280 H       1  LIG1        0.1740
     31  H         13.4320    9.1610   16.5250 H       1  LIG1        0.1740
     32  H         11.5760   10.7730   14.1680 H       1  LIG1        0.1740
     33  H         11.6530   10.0260   15.6990 H       1  LIG1        0.1740
@<TRIPOS>BOND
     1    12    13    1
     2    12    11    1
     3    14    13    2
     4    13    15   am
     5    15    16    1
     6    15    17    1
     7    10     9    2
     8    11     9    1
     9     9     8    1
    10     8     5    1
    11     5     6   ar
    12     5     4   ar
    13     6     7   ar
    14     4     3   ar
    15     7     2   ar
    16     3     2   ar
    17    21    22   ar
    18    21    20   ar
    19     2     1    1
    20    22    23   ar
    21    19    18    2
    22    18    20    1
    23    18     1    1
    24    20    25   ar
    25    23    26    1
    26    23    24   ar
    27    26    27    2
    28    25    24   ar
    29    32    29    1
    30    27    29    1
    31    27    28    1
    32    29    33    1
    33    30    28    1
    34    28    31    1
@<TRIPOS>MOLECULE
./../dock_file/temp/7f3995a203679a5c76c2dcf4ca9047ea/Camostat_Ligand_CID_2536:hmTMPRSS11_F:20230418111003/Camostat_Ligand_CID_2536:hmTMPRSS11_F_out_1.pdbqt
 33 34 0 0 0
SMALL
GASTEIGER

@<TRIPOS>ATOM
      1  O         18.9920   10.1370   11.2160 O.3     1  LIG1       -0.2750
      2  C         20.1650   10.7680   11.4960 C.ar    1  LIG1        0.0790
      3  C         20.3410   11.3990   12.7280 C.ar    1  LIG1        0.0380
      4  C         21.5430   12.0450   13.0140 C.ar    1  LIG1        0.0100
      5  C         22.5700   12.0610   12.0700 C.ar    1  LIG1       -0.0490
      6  C         22.3930   11.4300   10.8380 C.ar    1  LIG1        0.0100
      7  C         21.1910   10.7830   10.5510 C.ar    1  LIG1        0.0380
      8  C         23.8680   12.7590   12.3790 C.3     1  LIG1        0.1490
      9  C         23.9760   14.1180   11.7280 C.2     1  LIG1        0.2630
     10  O         24.5230   14.3500   10.6590 O.2     1  LIG1       -0.2650
     11  O         23.3630   15.0580   12.5220 O.3     1  LIG1       -0.3120
     12  C         22.6330   16.0620   11.8500 C.3     1  LIG1        0.2810
     13  C         22.6450   17.3350   12.6700 C.2     1  LIG1        0.2430
     14  O         23.7310   17.7950   13.0360 O.2     1  LIG1       -0.2710
     15  N         21.4140   17.9260   12.9580 N.am    1  LIG1       -0.3590
     16  C         20.1120   17.4220   12.5300 C.3     1  LIG1        0.1520
     17  C         21.3760   19.1580   13.7370 C.3     1  LIG1        0.1520
     18  C         18.5130    9.3290   12.2490 C.2     1  LIG1        0.2980
     19  O         19.1240    8.4130   12.7790 O.2     1  LIG1       -0.2590
     20  C         17.1300    9.7100   12.6310 C.ar    1  LIG1        0.0400
     21  C         16.0430    9.1680   11.9460 C.ar    1  LIG1        0.0200
     22  C         14.7430    9.5270   12.3050 C.ar    1  LIG1        0.0330
     23  C         14.5310   10.4280   13.3480 C.ar    1  LIG1        0.0750
     24  C         15.6180   10.9710   14.0340 C.ar    1  LIG1        0.0330
     25  C         16.9180   10.6120   13.6750 C.ar    1  LIG1        0.0200
     26  N         13.2280   10.7870   13.7080 N.pl3   1  LIG1       -0.0660
     27  C         12.6730   10.2060   14.7450 C.cat   1  LIG1        0.6920
     28  N         13.2310    9.2460   15.5610 N.pl3   1  LIG1       -0.2330
     29  N         11.3940   10.5310   15.1310 N.pl3   1  LIG1       -0.2330
     30  H         14.1450    8.9250   15.3890 H       1  LIG1        0.1740
     31  H         12.7140    8.8800   16.3140 H       1  LIG1        0.1740
     32  H         10.8850   11.2070   14.6290 H       1  LIG1        0.1740
     33  H         10.9890   10.0880   15.9120 H       1  LIG1        0.1740
@<TRIPOS>BOND
     1     7     6   ar
     2     7     2   ar
     3    10     9    2
     4     6     5   ar
     5     1     2    1
     6     1    18    1
     7     2     3   ar
     8     9     8    1
     9     9    11    1
    10    12    11    1
    11    12    13    1
    12    21    22   ar
    13    21    20   ar
    14     5     8    1
    15     5     4   ar
    16    18    20    1
    17    18    19    2
    18    22    23   ar
    19    16    15    1
    20    20    25   ar
    21    13    15   am
    22    13    14    2
    23     3     4   ar
    24    15    17    1
    25    23    26    1
    26    23    24   ar
    27    25    24   ar
    28    26    27    2
    29    32    29    1
    30    27    29    1
    31    27    28    1
    32    29    33    1
    33    30    28    1
    34    28    31    1
@<TRIPOS>MOLECULE
./../dock_file/temp/7f3995a203679a5c76c2dcf4ca9047ea/Camostat_Ligand_CID_2536:hmTMPRSS11_F:20230418111003/Camostat_Ligand_CID_2536:hmTMPRSS11_F_out_1.pdbqt
 33 34 0 0 0
SMALL
GASTEIGER

@<TRIPOS>ATOM
      1  O         20.2280   10.4750   13.1640 O.3     1  LIG1       -0.2750
      2  C         20.3580   11.3210   12.1060 C.ar    1  LIG1        0.0790
      3  C         20.9050   10.8610   10.9080 C.ar    1  LIG1        0.0380
      4  C         21.0390   11.7280    9.8240 C.ar    1  LIG1        0.0100
      5  C         20.6230   13.0550    9.9360 C.ar    1  LIG1       -0.0490
      6  C         20.0760   13.5150   11.1340 C.ar    1  LIG1        0.0100
      7  C         19.9430   12.6470   12.2190 C.ar    1  LIG1        0.0380
      8  C         20.7670   13.9920    8.7650 C.3     1  LIG1        0.1490
      9  C         20.4120   15.4200    9.1060 C.2     1  LIG1        0.2630
     10  O         21.1530   16.2220    9.6580 O.2     1  LIG1       -0.2650
     11  O         19.1260   15.6830    8.7000 O.3     1  LIG1       -0.3120
     12  C         18.9790   16.2380    7.4100 C.3     1  LIG1        0.2810
     13  C         18.0200   15.3930    6.5980 C.2     1  LIG1        0.2430
     14  O         18.4640   14.4280    5.9700 O.2     1  LIG1       -0.2710
     15  N         16.6720   15.7550    6.6150 N.am    1  LIG1       -0.3590
     16  C         16.1070   16.8800    7.3570 C.3     1  LIG1        0.1520
     17  C         15.7090   14.9670    5.8560 C.3     1  LIG1        0.1520
     18  C         19.4580    9.3390   12.9010 C.2     1  LIG1        0.2980
     19  O         19.8910    8.2490   12.5600 O.2     1  LIG1       -0.2590
     20  C         18.0110    9.6210   13.0720 C.ar    1  LIG1        0.0400
     21  C         17.0820    9.0590   12.1970 C.ar    1  LIG1        0.0200
     22  C         15.7220    9.3240   12.3580 C.ar    1  LIG1        0.0330
     23  C         15.2910   10.1520   13.3940 C.ar    1  LIG1        0.0750
     24  C         16.2190   10.7150   14.2700 C.ar    1  LIG1        0.0330
     25  C         17.5790   10.4500   14.1090 C.ar    1  LIG1        0.0200
     26  N         13.9270   10.4170   13.5560 N.pl3   1  LIG1       -0.0660
     27  C         13.3280   10.0150   14.6520 C.cat   1  LIG1        0.6920
     28  N         13.8920    9.3350   15.7090 N.pl3   1  LIG1       -0.2330
     29  N         11.9890   10.2560   14.8490 N.pl3   1  LIG1       -0.2330
     30  H         14.8480    9.1010   15.6900 H       1  LIG1        0.1740
     31  H         13.3380    9.0830   16.4840 H       1  LIG1        0.1740
     32  H         11.4690   10.7360   14.1650 H       1  LIG1        0.1740
     33  H         11.5510    9.9490   15.6760 H       1  LIG1        0.1740
@<TRIPOS>BOND
     1    17    15    1
     2    14    13    2
     3    13    15   am
     4    13    12    1
     5    15    16    1
     6    12    11    1
     7    11     9    1
     8     8     9    1
     9     8     5    1
    10     9    10    2
    11     4     5   ar
    12     4     3   ar
    13     5     6   ar
    14     3     2   ar
    15     6     7   ar
    16     2     7   ar
    17     2     1    1
    18    21    22   ar
    19    21    20   ar
    20    22    23   ar
    21    19    18    2
    22    18    20    1
    23    18     1    1
    24    20    25   ar
    25    23    26    1
    26    23    24   ar
    27    26    27    2
    28    25    24   ar
    29    32    29    1
    30    27    29    1
    31    27    28    1
    32    29    33    1
    33    30    28    1
    34    28    31    1
@<TRIPOS>MOLECULE
./../dock_file/temp/7f3995a203679a5c76c2dcf4ca9047ea/Camostat_Ligand_CID_2536:hmTMPRSS11_F:20230418111003/Camostat_Ligand_CID_2536:hmTMPRSS11_F_out_1.pdbqt
 33 34 0 0 0
SMALL
GASTEIGER

@<TRIPOS>ATOM
      1  O         20.3020   10.4030   13.2300 O.3     1  LIG1       -0.2750
      2  C         20.6850   11.1490   12.1580 C.ar    1  LIG1        0.0790
      3  C         21.6840   10.6820   11.3030 C.ar    1  LIG1        0.0380
      4  C         22.0760   11.4460   10.2060 C.ar    1  LIG1        0.0100
      5  C         21.4690   12.6790    9.9600 C.ar    1  LIG1       -0.0490
      6  C         20.4700   13.1460   10.8150 C.ar    1  LIG1        0.0100
      7  C         20.0780   12.3810   11.9130 C.ar    1  LIG1        0.0380
      8  C         21.8930   13.5050    8.7740 C.3     1  LIG1        0.1490
      9  C         22.2910   12.6650    7.5830 C.2     1  LIG1        0.2630
     10  O         23.4210   12.2610    7.3460 O.2     1  LIG1       -0.2650
     11  O         21.1850   12.4220    6.8030 O.3     1  LIG1       -0.3120
     12  C         20.6480   13.5330    6.1170 C.3     1  LIG1        0.2810
     13  C         19.1410   13.4070    6.0450 C.2     1  LIG1        0.2430
     14  O         18.6410   12.2790    6.0020 O.2     1  LIG1       -0.2710
     15  N         18.3960   14.5870    6.0400 N.am    1  LIG1       -0.3590
     16  C         18.9500   15.9380    6.1050 C.3     1  LIG1        0.1520
     17  C         16.9420   14.5170    5.9800 C.3     1  LIG1        0.1520
     18  C         19.5250    9.2880   12.9060 C.2     1  LIG1        0.2980
     19  O         19.9520    8.2110   12.5190 O.2     1  LIG1       -0.2590
     20  C         18.0780    9.5760   13.0750 C.ar    1  LIG1        0.0400
     21  C         17.6430   10.3590   14.1430 C.ar    1  LIG1        0.0200
     22  C         16.2840   10.6300   14.3010 C.ar    1  LIG1        0.0330
     23  C         15.3600   10.1170   13.3920 C.ar    1  LIG1        0.0750
     24  C         15.7940    9.3330   12.3230 C.ar    1  LIG1        0.0330
     25  C         17.1540    9.0620   12.1640 C.ar    1  LIG1        0.0200
     26  N         13.9960   10.3880   13.5510 N.pl3   1  LIG1       -0.0660
     27  C         13.4080   10.0450   14.6710 C.cat   1  LIG1        0.6920
     28  N         13.9830    9.4240   15.7600 N.pl3   1  LIG1       -0.2330
     29  N         12.0700   10.2940   14.8670 N.pl3   1  LIG1       -0.2330
     30  H         14.9380    9.1900   15.7450 H       1  LIG1        0.1740
     31  H         13.4360    9.2130   16.5510 H       1  LIG1        0.1740
     32  H         11.5430   10.7350   14.1630 H       1  LIG1        0.1740
     33  H         11.6400   10.0310   15.7130 H       1  LIG1        0.1740
@<TRIPOS>BOND
     1    17    15    1
     2    14    13    2
     3    15    13   am
     4    15    16    1
     5    13    12    1
     6    12    11    1
     7    11     9    1
     8    10     9    2
     9     9     8    1
    10     8     5    1
    11     5     4   ar
    12     5     6   ar
    13     4     3   ar
    14     6     7   ar
    15     3     2   ar
    16     7     2   ar
    17     2     1    1
    18    25    24   ar
    19    25    20   ar
    20    24    23   ar
    21    19    18    2
    22    18    20    1
    23    18     1    1
    24    20    21   ar
    25    23    26    1
    26    23    22   ar
    27    26    27    2
    28    21    22   ar
    29    32    29    1
    30    27    29    1
    31    27    28    1
    32    29    33    1
    33    30    28    1
    34    28    31    1
@<TRIPOS>MOLECULE
./../dock_file/temp/7f3995a203679a5c76c2dcf4ca9047ea/Camostat_Ligand_CID_2536:hmTMPRSS11_F:20230418111003/Camostat_Ligand_CID_2536:hmTMPRSS11_F_out_1.pdbqt
 33 34 0 0 0
SMALL
GASTEIGER

@<TRIPOS>ATOM
      1  O         20.0180   10.8520   12.4880 O.3     1  LIG1       -0.2750
      2  C         20.9130   10.8400   11.4630 C.ar    1  LIG1        0.0790
      3  C         22.2690   10.6420   11.7220 C.ar    1  LIG1        0.0380
      4  C         23.1850   10.6290   10.6720 C.ar    1  LIG1        0.0100
      5  C         22.7460   10.8120    9.3600 C.ar    1  LIG1       -0.0490
      6  C         21.3900   11.0100    9.1010 C.ar    1  LIG1        0.0100
      7  C         20.4730   11.0230   10.1520 C.ar    1  LIG1        0.0380
      8  C         23.7360   10.7980    8.2250 C.3     1  LIG1        0.1490
      9  C         24.3370    9.4320    7.9840 C.2     1  LIG1        0.2630
     10  O         25.4640    9.0870    8.3090 O.2     1  LIG1       -0.2650
     11  O         23.4190    8.6340    7.3420 O.3     1  LIG1       -0.3120
     12  C         23.3430    8.7740    5.9390 C.3     1  LIG1        0.2810
     13  C         22.0480    8.1710    5.4370 C.2     1  LIG1        0.2430
     14  O         21.0800    8.9140    5.2500 O.2     1  LIG1       -0.2710
     15  N         22.0270    6.7950    5.2050 N.am    1  LIG1       -0.3590
     16  C         23.1540    5.8860    5.4000 C.3     1  LIG1        0.1520
     17  C         20.8060    6.1710    4.7130 C.3     1  LIG1        0.1520
     18  C         19.3810    9.6290   12.7110 C.2     1  LIG1        0.2980
     19  O         19.9210    8.5340   12.7090 O.2     1  LIG1       -0.2590
     20  C         17.9260    9.8180   12.9400 C.ar    1  LIG1        0.0400
     21  C         17.0010    9.1000   12.1820 C.ar    1  LIG1        0.0200
     22  C         15.6350    9.2770   12.3990 C.ar    1  LIG1        0.0330
     23  C         15.1920   10.1710   13.3720 C.ar    1  LIG1        0.0750
     24  C         16.1170   10.8900   14.1310 C.ar    1  LIG1        0.0330
     25  C         17.4830   10.7130   13.9150 C.ar    1  LIG1        0.0200
     26  N         13.8220   10.3490   13.5890 N.pl3   1  LIG1       -0.0660
     27  C         13.3150   10.0120   14.7510 C.cat   1  LIG1        0.6920
     28  N         13.9860    9.4830   15.8330 N.pl3   1  LIG1       -0.2330
     29  N         11.9730   10.1700   15.0040 N.pl3   1  LIG1       -0.2330
     30  H         14.9550    9.3200   15.7790 H       1  LIG1        0.1740
     31  H         13.4950    9.2670   16.6590 H       1  LIG1        0.1740
     32  H         11.3810   10.5400   14.3110 H       1  LIG1        0.1740
     33  H         11.6040    9.9140   15.8810 H       1  LIG1        0.1740
@<TRIPOS>BOND
     1    17    15    1
     2    15    16    1
     3    15    13   am
     4    14    13    2
     5    13    12    1
     6    12    11    1
     7    11     9    1
     8     9     8    1
     9     9    10    2
    10     8     5    1
    11     6     5   ar
    12     6     7   ar
    13     5     4   ar
    14     7     2   ar
    15     4     3   ar
    16     2     3   ar
    17     2     1    1
    18    21    22   ar
    19    21    20   ar
    20    22    23   ar
    21     1    18    1
    22    19    18    2
    23    18    20    1
    24    20    25   ar
    25    23    26    1
    26    23    24   ar
    27    26    27    2
    28    25    24   ar
    29    32    29    1
    30    27    29    1
    31    27    28    1
    32    29    33    1
    33    30    28    1
    34    28    31    1
@<TRIPOS>MOLECULE
./../dock_file/temp/7f3995a203679a5c76c2dcf4ca9047ea/Camostat_Ligand_CID_2536:hmTMPRSS11_F:20230418111003/Camostat_Ligand_CID_2536:hmTMPRSS11_F_out_1.pdbqt
 33 34 0 0 0
SMALL
GASTEIGER

@<TRIPOS>ATOM
      1  O         19.8450   10.7540   12.8030 O.3     1  LIG1       -0.2750
      2  C         20.6990   11.0140   11.7760 C.ar    1  LIG1        0.0790
      3  C         22.0740   11.0650   12.0060 C.ar    1  LIG1        0.0380
      4  C         22.9480   11.3310   10.9540 C.ar    1  LIG1        0.0100
      5  C         22.4480   11.5450    9.6690 C.ar    1  LIG1       -0.0490
      6  C         21.0730   11.4940    9.4380 C.ar    1  LIG1        0.0100
      7  C         20.1990   11.2280   10.4920 C.ar    1  LIG1        0.0380
      8  C         23.3930   11.8330    8.5310 C.3     1  LIG1        0.1490
      9  C         24.0270   10.5860    7.9620 C.2     1  LIG1        0.2630
     10  O         25.1170   10.1340    8.2840 O.2     1  LIG1       -0.2650
     11  O         23.1890   10.0320    7.0230 O.3     1  LIG1       -0.3120
     12  C         23.0290   10.7570    5.8230 C.3     1  LIG1        0.2810
     13  C         21.5720   11.1240    5.6390 C.2     1  LIG1        0.2430
     14  O         20.7080   10.3000    5.9500 O.2     1  LIG1       -0.2710
     15  N         21.2880   12.3920    5.1300 N.am    1  LIG1       -0.3590
     16  C         22.2810   13.4000    4.7650 C.3     1  LIG1        0.1520
     17  C         19.9000   12.7950    4.9440 C.3     1  LIG1        0.1520
     18  C         19.1100    9.5750   12.6550 C.2     1  LIG1        0.2980
     19  O         19.5660    8.4840   12.3500 O.2     1  LIG1       -0.2590
     20  C         17.6650    9.8110   12.9030 C.ar    1  LIG1        0.0400
     21  C         16.7090    9.1910   12.0990 C.ar    1  LIG1        0.0200
     22  C         15.3520    9.4120   12.3330 C.ar    1  LIG1        0.0330
     23  C         14.9500   10.2540   13.3700 C.ar    1  LIG1        0.0750
     24  C         15.9060   10.8740   14.1750 C.ar    1  LIG1        0.0330
     25  C         17.2630   10.6530   13.9410 C.ar    1  LIG1        0.0200
     26  N         13.5890   10.4760   13.6040 N.pl3   1  LIG1       -0.0660
     27  C         13.0650   10.0660   14.7340 C.cat   1  LIG1        0.6920
     28  N         13.7090    9.4170   15.7660 N.pl3   1  LIG1       -0.2330
     29  N         11.7310   10.2650   15.0030 N.pl3   1  LIG1       -0.2330
     30  H         14.6690    9.2140   15.6960 H       1  LIG1        0.1740
     31  H         13.2060    9.1560   16.5720 H       1  LIG1        0.1740
     32  H         11.1590   10.7190   14.3440 H       1  LIG1        0.1740
     33  H         11.3500    9.9530   15.8560 H       1  LIG1        0.1740
@<TRIPOS>BOND
     1    16    15    1
     2    17    15    1
     3    15    13   am
     4    13    12    1
     5    13    14    2
     6    12    11    1
     7    11     9    1
     8     9    10    2
     9     9     8    1
    10     8     5    1
    11     6     5   ar
    12     6     7   ar
    13     5     4   ar
    14     7     2   ar
    15     4     3   ar
    16     2     3   ar
    17     2     1    1
    18    21    22   ar
    19    21    20   ar
    20    22    23   ar
    21    19    18    2
    22    18     1    1
    23    18    20    1
    24    20    25   ar
    25    23    26    1
    26    23    24   ar
    27    26    27    2
    28    25    24   ar
    29    32    29    1
    30    27    29    1
    31    27    28    1
    32    29    33    1
    33    30    28    1
    34    28    31    1
