@<TRIPOS>MOLECULE
./../dock_file/temp/7f3995a203679a5c76c2dcf4ca9047ea/Camostat_Ligand_CID_2536:hmTMPRSS11_F:20230418111003/Camostat_Ligand_CID_2536:hmTMPRSS11_F_out_5.pdbqt
 33 34 0 0 0
SMALL
GASTEIGER

@<TRIPOS>ATOM
      1  O         15.5900   -4.4650   31.4090 O.3     1  LIG1       -0.2750
      2  C         14.4120   -4.7450   32.0310 C.ar    1  LIG1        0.0790
      3  C         13.4440   -5.5110   31.3810 C.ar    1  LIG1        0.0380
      4  C         12.2370   -5.7970   32.0180 C.ar    1  LIG1        0.0100
      5  C         11.9980   -5.3190   33.3060 C.ar    1  LIG1       -0.0490
      6  C         12.9650   -4.5520   33.9560 C.ar    1  LIG1        0.0100
      7  C         14.1730   -4.2660   33.3190 C.ar    1  LIG1        0.0380
      8  C         10.6940   -5.6280   33.9950 C.3     1  LIG1        0.1490
      9  C         10.8240   -6.7040   35.0470 C.2     1  LIG1        0.2630
     10  O         10.5300   -6.5800   36.2270 O.2     1  LIG1       -0.2650
     11  O         11.3240   -7.8490   34.4730 O.3     1  LIG1       -0.3120
     12  C         12.2950   -8.5490   35.2210 C.3     1  LIG1        0.2810
     13  C         13.6790   -8.0740   34.8310 C.2     1  LIG1        0.2430
     14  O         14.0960   -8.3270   33.6970 O.2     1  LIG1       -0.2710
     15  N         14.4070   -7.3620   35.7850 N.am    1  LIG1       -0.3590
     16  C         13.9420   -7.0300   37.1300 C.3     1  LIG1        0.1520
     17  C         15.7400   -6.8760   35.4530 C.3     1  LIG1        0.1520
     18  C         15.4520   -3.8050   30.1860 C.2     1  LIG1        0.2980
     19  O         14.9880   -2.6860   30.0280 O.2     1  LIG1       -0.2590
     20  C         15.9320   -4.6510   29.0640 C.ar    1  LIG1        0.0400
     21  C         15.8570   -4.1800   27.7540 C.ar    1  LIG1        0.0200
     22  C         16.3090   -4.9750   26.7000 C.ar    1  LIG1        0.0330
     23  C         16.8340   -6.2410   26.9560 C.ar    1  LIG1        0.0750
     24  C         16.9090   -6.7130   28.2670 C.ar    1  LIG1        0.0330
     25  C         16.4580   -5.9180   29.3210 C.ar    1  LIG1        0.0200
     26  N         17.2870   -7.0380   25.8990 N.pl3   1  LIG1       -0.0660
     27  C         16.5470   -7.1410   24.8210 C.cat   1  LIG1        0.6920
     28  N         15.3290   -6.5410   24.5840 N.pl3   1  LIG1       -0.2330
     29  N         16.9560   -7.9140   23.7600 N.pl3   1  LIG1       -0.2330
     30  H         14.9250   -5.9600   25.2680 H       1  LIG1        0.1740
     31  H         14.8640   -6.6950   23.7300 H       1  LIG1        0.1740
     32  H         17.8130   -8.3970   23.8040 H       1  LIG1        0.1740
     33  H         16.3920   -7.9830   22.9560 H       1  LIG1        0.1740
@<TRIPOS>BOND
     1    33    29    1
     2    31    28    1
     3    29    32    1
     4    29    27    1
     5    28    27    1
     6    28    30    1
     7    27    26    2
     8    26    23    1
     9    22    23   ar
    10    22    21   ar
    11    23    24   ar
    12    21    20   ar
    13    24    25   ar
    14    20    25   ar
    15    20    18    1
    16    19    18    2
    17    18     1    1
    18     3     4   ar
    19     3     2   ar
    20     1     2    1
    21     4     5   ar
    22     2     7   ar
    23     5     6   ar
    24     5     8    1
    25     7     6   ar
    26    14    13    2
    27     8     9    1
    28    11     9    1
    29    11    12    1
    30    13    12    1
    31    13    15   am
    32     9    10    2
    33    17    15    1
    34    15    16    1
@<TRIPOS>MOLECULE
./../dock_file/temp/7f3995a203679a5c76c2dcf4ca9047ea/Camostat_Ligand_CID_2536:hmTMPRSS11_F:20230418111003/Camostat_Ligand_CID_2536:hmTMPRSS11_F_out_5.pdbqt
 33 34 0 0 0
SMALL
GASTEIGER

@<TRIPOS>ATOM
      1  O         10.1610   -6.1560   32.9930 O.3     1  LIG1       -0.2750
      2  C         11.4010   -5.7000   32.6640 C.ar    1  LIG1        0.0790
      3  C         12.1880   -5.0630   33.6240 C.ar    1  LIG1        0.0380
      4  C         13.4580   -4.5960   33.2880 C.ar    1  LIG1        0.0100
      5  C         13.9430   -4.7670   31.9910 C.ar    1  LIG1       -0.0490
      6  C         13.1560   -5.4040   31.0300 C.ar    1  LIG1        0.0100
      7  C         11.8850   -5.8710   31.3680 C.ar    1  LIG1        0.0380
      8  C         15.3150   -4.2630   31.6260 C.3     1  LIG1        0.1490
      9  C         15.3820   -3.6960   30.2280 C.2     1  LIG1        0.2630
     10  O         15.2000   -2.5240   29.9290 O.2     1  LIG1       -0.2650
     11  O         15.6810   -4.7010   29.3390 O.3     1  LIG1       -0.3120
     12  C         16.4530   -4.3320   28.2150 C.3     1  LIG1        0.2810
     13  C         15.6690   -4.6010   26.9480 C.2     1  LIG1        0.2430
     14  O         14.6760   -3.9090   26.7070 O.2     1  LIG1       -0.2710
     15  N         16.1260   -5.6220   26.1140 N.am    1  LIG1       -0.3590
     16  C         17.3040   -6.4510   26.3580 C.3     1  LIG1        0.1520
     17  C         15.4090   -5.9120   24.8790 C.3     1  LIG1        0.1520
     18  C         10.1260   -6.9470   34.1430 C.2     1  LIG1        0.2980
     19  O          9.4460   -6.7330   35.1350 O.2     1  LIG1       -0.2590
     20  C         11.0490   -8.1050   34.0250 C.ar    1  LIG1        0.0400
     21  C         12.0380   -8.3090   34.9860 C.ar    1  LIG1        0.0200
     22  C         12.9050   -9.3960   34.8760 C.ar    1  LIG1        0.0330
     23  C         12.7830  -10.2790   33.8030 C.ar    1  LIG1        0.0750
     24  C         11.7940  -10.0750   32.8410 C.ar    1  LIG1        0.0330
     25  C         10.9270   -8.9880   32.9510 C.ar    1  LIG1        0.0200
     26  N         13.6520  -11.3700   33.6920 N.pl3   1  LIG1       -0.0660
     27  C         14.8340  -11.1860   33.1540 C.cat   1  LIG1        0.6920
     28  N         15.3530  -10.0080   32.6630 N.pl3   1  LIG1       -0.2330
     29  N         15.7180  -12.2320   33.0270 N.pl3   1  LIG1       -0.2330
     30  H         14.8180   -9.1830   32.6940 H       1  LIG1        0.1740
     31  H         16.2600   -9.9930   32.2780 H       1  LIG1        0.1740
     32  H         15.4670  -13.1290   33.3410 H       1  LIG1        0.1740
     33  H         16.6030  -12.0810   32.6210 H       1  LIG1        0.1740
@<TRIPOS>BOND
     1    17    15    1
     2    15    16    1
     3    15    13   am
     4    14    13    2
     5    13    12    1
     6    12    11    1
     7    11     9    1
     8    10     9    2
     9     9     8    1
    10     6     7   ar
    11     6     5   ar
    12     7     2   ar
    13     8     5    1
    14     5     4   ar
    15    31    28    1
    16    33    29    1
    17    28    30    1
    18    28    27    1
    19     2     1    1
    20     2     3   ar
    21    24    25   ar
    22    24    23   ar
    23    25    20   ar
    24     1    18    1
    25    29    27    1
    26    29    32    1
    27    27    26    2
    28     4     3   ar
    29    26    23    1
    30    23    22   ar
    31    20    18    1
    32    20    21   ar
    33    18    19    2
    34    22    21   ar
@<TRIPOS>MOLECULE
./../dock_file/temp/7f3995a203679a5c76c2dcf4ca9047ea/Camostat_Ligand_CID_2536:hmTMPRSS11_F:20230418111003/Camostat_Ligand_CID_2536:hmTMPRSS11_F_out_5.pdbqt
 33 34 0 0 0
SMALL
GASTEIGER

@<TRIPOS>ATOM
      1  O         15.9400   -9.8940   32.4960 O.3     1  LIG1       -0.2750
      2  C         16.1560   -8.6270   32.0470 C.ar    1  LIG1        0.0790
      3  C         15.3670   -8.1060   31.0220 C.ar    1  LIG1        0.0380
      4  C         15.5880   -6.8080   30.5630 C.ar    1  LIG1        0.0100
      5  C         16.5990   -6.0310   31.1290 C.ar    1  LIG1       -0.0490
      6  C         17.3890   -6.5520   32.1540 C.ar    1  LIG1        0.0100
      7  C         17.1670   -7.8510   32.6130 C.ar    1  LIG1        0.0380
      8  C         16.8390   -4.6280   30.6320 C.3     1  LIG1        0.1490
      9  C         15.5590   -3.8650   30.3830 C.2     1  LIG1        0.2630
     10  O         14.7420   -3.5520   31.2370 O.2     1  LIG1       -0.2650
     11  O         15.4530   -3.5730   29.0430 O.3     1  LIG1       -0.3120
     12  C         16.3230   -4.2740   28.1810 C.3     1  LIG1        0.2810
     13  C         15.6130   -4.5800   26.8780 C.2     1  LIG1        0.2430
     14  O         14.6280   -3.9040   26.5670 O.2     1  LIG1       -0.2710
     15  N         16.1250   -5.6140   26.0940 N.am    1  LIG1       -0.3590
     16  C         17.2950   -6.4260   26.4220 C.3     1  LIG1        0.1520
     17  C         15.4810   -5.9400   24.8290 C.3     1  LIG1        0.1520
     18  C         15.4580   -9.9650   33.8050 C.2     1  LIG1        0.2980
     19  O         16.0320  -10.4860   34.7490 O.2     1  LIG1       -0.2590
     20  C         14.1190   -9.3310   33.9180 C.ar    1  LIG1        0.0400
     21  C         13.9330   -8.2430   34.7700 C.ar    1  LIG1        0.0200
     22  C         12.6760   -7.6470   34.8750 C.ar    1  LIG1        0.0330
     23  C         11.6060   -8.1400   34.1290 C.ar    1  LIG1        0.0750
     24  C         11.7920   -9.2280   33.2770 C.ar    1  LIG1        0.0330
     25  C         13.0490   -9.8240   33.1710 C.ar    1  LIG1        0.0200
     26  N         10.3450   -7.5420   34.2350 N.pl3   1  LIG1       -0.0660
     27  C         10.1150   -6.4280   33.5820 C.cat   1  LIG1        0.6920
     28  N         10.9920   -5.7400   32.7710 N.pl3   1  LIG1       -0.2330
     29  N          8.8900   -5.8090   33.6590 N.pl3   1  LIG1       -0.2330
     30  H         11.9050   -6.0790   32.6330 H       1  LIG1        0.1740
     31  H         10.7030   -4.9070   32.3310 H       1  LIG1        0.1740
     32  H          8.1740   -6.2020   34.2080 H       1  LIG1        0.1740
     33  H          8.7290   -4.9730   33.1640 H       1  LIG1        0.1740
@<TRIPOS>BOND
     1    17    15    1
     2    15    16    1
     3    15    13   am
     4    14    13    2
     5    13    12    1
     6    12    11    1
     7    11     9    1
     8     9     8    1
     9     9    10    2
    10     4     3   ar
    11     4     5   ar
    12     8     5    1
    13     3     2   ar
    14     5     6   ar
    15     2     1    1
    16     2     7   ar
    17     6     7   ar
    18    31    28    1
    19     1    18    1
    20    30    28    1
    21    28    27    1
    22    33    29    1
    23    25    24   ar
    24    25    20   ar
    25    24    23   ar
    26    27    29    1
    27    27    26    2
    28    29    32    1
    29    18    20    1
    30    18    19    2
    31    20    21   ar
    32    23    26    1
    33    23    22   ar
    34    21    22   ar
@<TRIPOS>MOLECULE
./../dock_file/temp/7f3995a203679a5c76c2dcf4ca9047ea/Camostat_Ligand_CID_2536:hmTMPRSS11_F:20230418111003/Camostat_Ligand_CID_2536:hmTMPRSS11_F_out_5.pdbqt
 33 34 0 0 0
SMALL
GASTEIGER

@<TRIPOS>ATOM
      1  O         16.8170   -3.0120   30.9140 O.3     1  LIG1       -0.2750
      2  C         16.5450   -1.6960   31.1300 C.ar    1  LIG1        0.0790
      3  C         16.2690   -0.8540   30.0520 C.ar    1  LIG1        0.0380
      4  C         15.9910    0.4940   30.2730 C.ar    1  LIG1        0.0100
      5  C         15.9870    1.0020   31.5720 C.ar    1  LIG1       -0.0490
      6  C         16.2630    0.1600   32.6500 C.ar    1  LIG1        0.0100
      7  C         16.5420   -1.1890   32.4290 C.ar    1  LIG1        0.0380
      8  C         15.6860    2.4590   31.8110 C.3     1  LIG1        0.1490
      9  C         14.5260    2.6730   32.7550 C.2     1  LIG1        0.2630
     10  O         13.3440    2.5410   32.4680 O.2     1  LIG1       -0.2650
     11  O         15.0020    3.0400   33.9920 O.3     1  LIG1       -0.3120
     12  C         14.0400    3.1790   35.0150 C.3     1  LIG1        0.2810
     13  C         14.6280    2.7210   36.3330 C.2     1  LIG1        0.2430
     14  O         15.5580    3.3660   36.8240 O.2     1  LIG1       -0.2710
     15  N         14.0710    1.5880   36.9260 N.am    1  LIG1       -0.3590
     16  C         12.9610    0.8070   36.3840 C.3     1  LIG1        0.1520
     17  C         14.5980    1.1130   38.2000 C.3     1  LIG1        0.1520
     18  C         15.7350   -3.7500   30.4290 C.2     1  LIG1        0.2980
     19  O         14.5960   -3.7200   30.8700 O.2     1  LIG1       -0.2590
     20  C         16.1430   -4.6130   29.2910 C.ar    1  LIG1        0.0400
     21  C         16.1410   -4.1030   27.9930 C.ar    1  LIG1        0.0200
     22  C         16.5250   -4.9130   26.9250 C.ar    1  LIG1        0.0330
     23  C         16.9100   -6.2340   27.1540 C.ar    1  LIG1        0.0750
     24  C         16.9120   -6.7450   28.4520 C.ar    1  LIG1        0.0330
     25  C         16.5280   -5.9340   29.5210 C.ar    1  LIG1        0.0200
     26  N         17.2950   -7.0470   26.0820 N.pl3   1  LIG1       -0.0660
     27  C         16.5630   -7.0500   24.9940 C.cat   1  LIG1        0.6920
     28  N         15.4140   -6.3260   24.7600 N.pl3   1  LIG1       -0.2330
     29  N         16.9070   -7.8340   23.9190 N.pl3   1  LIG1       -0.2330
     30  H         15.0600   -5.7250   25.4530 H       1  LIG1        0.1740
     31  H         14.9460   -6.4120   23.8970 H       1  LIG1        0.1740
     32  H         17.7100   -8.4010   23.9590 H       1  LIG1        0.1740
     33  H         16.3490   -7.8280   23.1070 H       1  LIG1        0.1740
@<TRIPOS>BOND
     1    33    29    1
     2    31    28    1
     3    29    32    1
     4    29    27    1
     5    28    27    1
     6    28    30    1
     7    27    26    2
     8    26    23    1
     9    22    23   ar
    10    22    21   ar
    11    23    24   ar
    12    21    20   ar
    13    24    25   ar
    14    20    25   ar
    15    20    18    1
    16     3     4   ar
    17     3     2   ar
    18     4     5   ar
    19    18    19    2
    20    18     1    1
    21     1     2    1
    22     2     7   ar
    23     5     8    1
    24     5     6   ar
    25     8     9    1
    26     7     6   ar
    27    10     9    2
    28     9    11    1
    29    11    12    1
    30    12    13    1
    31    13    14    2
    32    13    15   am
    33    16    15    1
    34    15    17    1
@<TRIPOS>MOLECULE
./../dock_file/temp/7f3995a203679a5c76c2dcf4ca9047ea/Camostat_Ligand_CID_2536:hmTMPRSS11_F:20230418111003/Camostat_Ligand_CID_2536:hmTMPRSS11_F_out_5.pdbqt
 33 34 0 0 0
SMALL
GASTEIGER

@<TRIPOS>ATOM
      1  O         15.2760   -3.5060   35.5120 O.3     1  LIG1       -0.2750
      2  C         14.0770   -4.1490   35.4660 C.ar    1  LIG1        0.0790
      3  C         13.9330   -5.4030   36.0600 C.ar    1  LIG1        0.0380
      4  C         12.7050   -6.0600   36.0140 C.ar    1  LIG1        0.0100
      5  C         11.6180   -5.4640   35.3740 C.ar    1  LIG1       -0.0490
      6  C         11.7610   -4.2100   34.7800 C.ar    1  LIG1        0.0100
      7  C         12.9910   -3.5520   34.8260 C.ar    1  LIG1        0.0380
      8  C         10.2900   -6.1740   35.3230 C.3     1  LIG1        0.1490
      9  C          9.8330   -6.4680   33.9140 C.2     1  LIG1        0.2630
     10  O          8.9990   -5.8260   33.2910 O.2     1  LIG1       -0.2650
     11  O         10.5000   -7.5710   33.4350 O.3     1  LIG1       -0.3120
     12  C         11.3850   -7.3470   32.3590 C.3     1  LIG1        0.2810
     13  C         12.8080   -7.6050   32.8080 C.2     1  LIG1        0.2430
     14  O         13.0490   -8.6240   33.4610 O.2     1  LIG1       -0.2710
     15  N         13.7770   -6.6680   32.4460 N.am    1  LIG1       -0.3590
     16  C         13.5340   -5.4590   31.6620 C.3     1  LIG1        0.1520
     17  C         15.1620   -6.8770   32.8480 C.3     1  LIG1        0.1520
     18  C         15.5040   -2.7980   36.6940 C.2     1  LIG1        0.2980
     19  O         15.9310   -3.2700   37.7360 O.2     1  LIG1       -0.2590
     20  C         15.1420   -1.3660   36.5380 C.ar    1  LIG1        0.0400
     21  C         14.1720   -0.7980   37.3630 C.ar    1  LIG1        0.0200
     22  C         13.8320    0.5470   37.2170 C.ar    1  LIG1        0.0330
     23  C         14.4610    1.3240   36.2450 C.ar    1  LIG1        0.0750
     24  C         15.4320    0.7560   35.4190 C.ar    1  LIG1        0.0330
     25  C         15.7720   -0.5890   35.5650 C.ar    1  LIG1        0.0200
     26  N         14.1210    2.6730   36.0990 N.pl3   1  LIG1       -0.0660
     27  C         13.2100    3.0040   35.2150 C.cat   1  LIG1        0.6920
     28  N         12.5160    2.1600   34.3750 N.pl3   1  LIG1       -0.2330
     29  N         12.8470    4.3190   35.0400 N.pl3   1  LIG1       -0.2330
     30  H         12.6850    1.1910   34.4010 H       1  LIG1        0.1740
     31  H         11.8520    2.5280   33.7480 H       1  LIG1        0.1740
     32  H         13.2700    5.0230   35.5820 H       1  LIG1        0.1740
     33  H         12.1620    4.5550   34.3730 H       1  LIG1        0.1740
@<TRIPOS>BOND
     1    16    15    1
     2    12    13    1
     3    12    11    1
     4    15    13   am
     5    15    17    1
     6    13    14    2
     7    10     9    2
     8    11     9    1
     9    31    28    1
    10     9     8    1
    11    33    29    1
    12    28    30    1
    13    28    27    1
    14     6     7   ar
    15     6     5   ar
    16     7     2   ar
    17    29    27    1
    18    29    32    1
    19    27    26    2
    20     8     5    1
    21     5     4   ar
    22    24    25   ar
    23    24    23   ar
    24     2     1    1
    25     2     3   ar
    26     1    18    1
    27    25    20   ar
    28     4     3   ar
    29    26    23    1
    30    23    22   ar
    31    20    18    1
    32    20    21   ar
    33    18    19    2
    34    22    21   ar
@<TRIPOS>MOLECULE
./../dock_file/temp/7f3995a203679a5c76c2dcf4ca9047ea/Camostat_Ligand_CID_2536:hmTMPRSS11_F:20230418111003/Camostat_Ligand_CID_2536:hmTMPRSS11_F_out_5.pdbqt
 33 34 0 0 0
SMALL
GASTEIGER

@<TRIPOS>ATOM
      1  O         16.3890   -6.4050   31.5160 O.3     1  LIG1       -0.2750
      2  C         16.4640   -5.0880   31.1790 C.ar    1  LIG1        0.0790
      3  C         15.8420   -4.6280   30.0180 C.ar    1  LIG1        0.0380
      4  C         15.9190   -3.2790   29.6740 C.ar    1  LIG1        0.0100
      5  C         16.6170   -2.3890   30.4900 C.ar    1  LIG1       -0.0490
      6  C         17.2390   -2.8500   31.6510 C.ar    1  LIG1        0.0100
      7  C         17.1620   -4.1990   31.9960 C.ar    1  LIG1        0.0380
      8  C         16.7010   -0.9320   30.1180 C.3     1  LIG1        0.1490
      9  C         15.5670   -0.1120   30.6900 C.2     1  LIG1        0.2630
     10  O         14.4050   -0.1500   30.3120 O.2     1  LIG1       -0.2650
     11  O         16.0430    0.6850   31.7040 O.3     1  LIG1       -0.3120
     12  C         15.7150    2.0560   31.6260 C.3     1  LIG1        0.2810
     13  C         15.9660    2.7170   32.9660 C.2     1  LIG1        0.2430
     14  O         17.0080    2.4530   33.5720 O.2     1  LIG1       -0.2710
     15  N         14.9960    3.6020   33.4370 N.am    1  LIG1       -0.3590
     16  C         13.7590    3.9510   32.7420 C.3     1  LIG1        0.1520
     17  C         15.1970    4.2690   34.7170 C.3     1  LIG1        0.1520
     18  C         15.9040   -6.6420   32.8040 C.2     1  LIG1        0.2980
     19  O         16.5740   -6.9870   33.7660 O.2     1  LIG1       -0.2590
     20  C         14.4340   -6.4350   32.8700 C.ar    1  LIG1        0.0400
     21  C         13.9180   -5.2810   33.4560 C.ar    1  LIG1        0.0200
     22  C         12.5380   -5.0870   33.5170 C.ar    1  LIG1        0.0330
     23  C         11.6740   -6.0480   32.9920 C.ar    1  LIG1        0.0750
     24  C         12.1910   -7.2030   32.4050 C.ar    1  LIG1        0.0330
     25  C         13.5710   -7.3970   32.3450 C.ar    1  LIG1        0.0200
     26  N         10.2900   -5.8530   33.0530 N.pl3   1  LIG1       -0.0660
     27  C          9.6220   -6.3650   34.0590 C.cat   1  LIG1        0.6920
     28  N         10.1280   -7.1020   35.1080 N.pl3   1  LIG1       -0.2330
     29  N          8.2610   -6.1960   34.1560 N.pl3   1  LIG1       -0.2330
     30  H         11.0910   -7.2940   35.1560 H       1  LIG1        0.1740
     31  H          9.5230   -7.4370   35.8100 H       1  LIG1        0.1740
     32  H          7.7780   -5.6860   33.4670 H       1  LIG1        0.1740
     33  H          7.7710   -6.5850   34.9170 H       1  LIG1        0.1740
@<TRIPOS>BOND
     1     4     3   ar
     2     4     5   ar
     3     3     2   ar
     4     8     5    1
     5     8     9    1
     6    10     9    2
     7     5     6   ar
     8     9    11    1
     9     2     1    1
    10     2     7   ar
    11     1    18    1
    12    12    11    1
    13    12    13    1
    14     6     7   ar
    15    25    24   ar
    16    25    20   ar
    17    24    23   ar
    18    16    15    1
    19    18    20    1
    20    18    19    2
    21    20    21   ar
    22    13    15   am
    23    13    14    2
    24    23    26    1
    25    23    22   ar
    26    26    27    2
    27    15    17    1
    28    21    22   ar
    29    32    29    1
    30    27    29    1
    31    27    28    1
    32    29    33    1
    33    28    30    1
    34    28    31    1
@<TRIPOS>MOLECULE
./../dock_file/temp/7f3995a203679a5c76c2dcf4ca9047ea/Camostat_Ligand_CID_2536:hmTMPRSS11_F:20230418111003/Camostat_Ligand_CID_2536:hmTMPRSS11_F_out_5.pdbqt
 33 34 0 0 0
SMALL
GASTEIGER

@<TRIPOS>ATOM
      1  O         16.8960    0.1410   31.5130 O.3     1  LIG1       -0.2750
      2  C         16.1090    1.0680   32.1240 C.ar    1  LIG1        0.0790
      3  C         14.7220    0.9200   32.1160 C.ar    1  LIG1        0.0380
      4  C         13.9160    1.8700   32.7430 C.ar    1  LIG1        0.0100
      5  C         14.4970    2.9680   33.3780 C.ar    1  LIG1       -0.0490
      6  C         15.8840    3.1150   33.3860 C.ar    1  LIG1        0.0100
      7  C         16.6900    2.1650   32.7590 C.ar    1  LIG1        0.0380
      8  C         13.6260    3.9950   34.0550 C.3     1  LIG1        0.1490
      9  C         13.0370    3.5020   35.3560 C.2     1  LIG1        0.2630
     10  O         11.9230    3.0140   35.4900 O.2     1  LIG1       -0.2650
     11  O         13.9470    3.6830   36.3710 O.3     1  LIG1       -0.3120
     12  C         14.1750    2.5720   37.2110 C.3     1  LIG1        0.2810
     13  C         15.3350    1.7590   36.6760 C.2     1  LIG1        0.2430
     14  O         16.4770    2.2170   36.7750 O.2     1  LIG1       -0.2710
     15  N         15.0420    0.5210   36.1020 N.am    1  LIG1       -0.3590
     16  C         13.7080   -0.0610   35.9800 C.3     1  LIG1        0.1520
     17  C         16.1270   -0.3020   35.5810 C.3     1  LIG1        0.1520
     18  C         17.2450    0.4600   30.1980 C.2     1  LIG1        0.2980
     19  O         16.5160    0.3630   29.2240 O.2     1  LIG1       -0.2590
     20  C         18.6520    0.9300   30.1170 C.ar    1  LIG1        0.0400
     21  C         19.6590    0.2320   30.7820 C.ar    1  LIG1        0.0200
     22  C         20.9800    0.6740   30.7050 C.ar    1  LIG1        0.0330
     23  C         21.2940    1.8130   29.9650 C.ar    1  LIG1        0.0750
     24  C         20.2860    2.5120   29.3000 C.ar    1  LIG1        0.0330
     25  C         18.9640    2.0710   29.3770 C.ar    1  LIG1        0.0200
     26  N         22.6190    2.2560   29.8880 N.pl3   1  LIG1       -0.0660
     27  C         23.3980    1.7650   28.9540 C.cat   1  LIG1        0.6920
     28  N         23.0670    0.8290   27.9980 N.pl3   1  LIG1       -0.2330
     29  N         24.7060    2.1730   28.8450 N.pl3   1  LIG1       -0.2330
     30  H         22.1580    0.4550   27.9690 H       1  LIG1        0.1740
     31  H         23.7420    0.5340   27.3450 H       1  LIG1        0.1740
     32  H         25.0670    2.8420   29.4700 H       1  LIG1        0.1740
     33  H         25.2810    1.7970   28.1390 H       1  LIG1        0.1740
@<TRIPOS>BOND
     1    31    28    1
     2    30    28    1
     3    28    27    1
     4    33    29    1
     5    29    27    1
     6    29    32    1
     7    27    26    2
     8    19    18    2
     9    24    25   ar
    10    24    23   ar
    11    25    20   ar
    12    26    23    1
    13    23    22   ar
    14    20    18    1
    15    20    21   ar
    16    18     1    1
    17    22    21   ar
    18     1     2    1
    19     3     2   ar
    20     3     4   ar
    21     2     7   ar
    22     4     5   ar
    23     7     6   ar
    24     5     6   ar
    25     5     8    1
    26     8     9    1
    27     9    10    2
    28     9    11    1
    29    17    15    1
    30    16    15    1
    31    15    13   am
    32    11    12    1
    33    13    14    2
    34    13    12    1
@<TRIPOS>MOLECULE
./../dock_file/temp/7f3995a203679a5c76c2dcf4ca9047ea/Camostat_Ligand_CID_2536:hmTMPRSS11_F:20230418111003/Camostat_Ligand_CID_2536:hmTMPRSS11_F_out_5.pdbqt
 33 34 0 0 0
SMALL
GASTEIGER

@<TRIPOS>ATOM
      1  O         13.9640   -5.8710   33.0770 O.3     1  LIG1       -0.2750
      2  C         14.5550   -4.8750   32.3630 C.ar    1  LIG1        0.0790
      3  C         14.8900   -5.0790   31.0240 C.ar    1  LIG1        0.0380
      4  C         15.4950   -4.0590   30.2930 C.ar    1  LIG1        0.0100
      5  C         15.7660   -2.8320   30.8990 C.ar    1  LIG1       -0.0490
      6  C         15.4310   -2.6270   32.2380 C.ar    1  LIG1        0.0100
      7  C         14.8250   -3.6490   32.9700 C.ar    1  LIG1        0.0380
      8  C         16.4200   -1.7280   30.1090 C.3     1  LIG1        0.1490
      9  C         15.8610   -0.3620   30.4310 C.2     1  LIG1        0.2630
     10  O         14.7220    0.0120   30.1880 O.2     1  LIG1       -0.2650
     11  O         16.8300    0.3990   31.0400 O.3     1  LIG1       -0.3120
     12  C         17.9360    0.7600   30.2400 C.3     1  LIG1        0.2810
     13  C         18.2520    2.2270   30.4400 C.2     1  LIG1        0.2430
     14  O         17.5380    2.8910   31.1960 O.2     1  LIG1       -0.2710
     15  N         19.3510    2.7470   29.7550 N.am    1  LIG1       -0.3590
     16  C         20.2290    1.9910   28.8640 C.3     1  LIG1        0.1520
     17  C         19.7000    4.1520   29.9220 C.3     1  LIG1        0.1520
     18  C         12.7500   -6.3160   32.5470 C.2     1  LIG1        0.2980
     19  O         11.9060   -5.6140   32.0120 O.2     1  LIG1       -0.2590
     20  C         12.5920   -7.7820   32.7290 C.ar    1  LIG1        0.0400
     21  C         13.6990   -8.5690   33.0430 C.ar    1  LIG1        0.0200
     22  C         13.5500   -9.9450   33.2140 C.ar    1  LIG1        0.0330
     23  C         12.2940  -10.5340   33.0700 C.ar    1  LIG1        0.0750
     24  C         11.1860   -9.7470   32.7560 C.ar    1  LIG1        0.0330
     25  C         11.3350   -8.3710   32.5850 C.ar    1  LIG1        0.0200
     26  N         12.1450  -11.9150   33.2420 N.pl3   1  LIG1       -0.0660
     27  C         11.9220  -12.3830   34.4470 C.cat   1  LIG1        0.6920
     28  N         11.8100  -11.6620   35.6150 N.pl3   1  LIG1       -0.2330
     29  N         11.7690  -13.7330   34.6580 N.pl3   1  LIG1       -0.2330
     30  H         11.9010  -10.6820   35.6000 H       1  LIG1        0.1740
     31  H         11.6410  -12.1270   36.4670 H       1  LIG1        0.1740
     32  H         11.8260  -14.3590   33.9010 H       1  LIG1        0.1740
     33  H         11.6010  -14.0730   35.5670 H       1  LIG1        0.1740
@<TRIPOS>BOND
     1    16    15    1
     2    15    17    1
     3    15    13   am
     4     8     9    1
     5     8     5    1
     6    10     9    2
     7    12    13    1
     8    12    11    1
     9     4     5   ar
    10     4     3   ar
    11     9    11    1
    12    13    14    2
    13     5     6   ar
    14     3     2   ar
    15    19    18    2
    16     6     7   ar
    17     2     7   ar
    18     2     1    1
    19    18    20    1
    20    18     1    1
    21    25    20   ar
    22    25    24   ar
    23    20    21   ar
    24    24    23   ar
    25    21    22   ar
    26    23    22   ar
    27    23    26    1
    28    26    27    2
    29    32    29    1
    30    27    29    1
    31    27    28    1
    32    29    33    1
    33    30    28    1
    34    28    31    1
@<TRIPOS>MOLECULE
./../dock_file/temp/7f3995a203679a5c76c2dcf4ca9047ea/Camostat_Ligand_CID_2536:hmTMPRSS11_F:20230418111003/Camostat_Ligand_CID_2536:hmTMPRSS11_F_out_5.pdbqt
 33 34 0 0 0
SMALL
GASTEIGER

@<TRIPOS>ATOM
      1  O         15.8390   -2.7790   33.8780 O.3     1  LIG1       -0.2750
      2  C         14.6450   -3.4320   33.8630 C.ar    1  LIG1        0.0790
      3  C         13.6340   -3.0600   34.7500 C.ar    1  LIG1        0.0380
      4  C         12.4110   -3.7290   34.7340 C.ar    1  LIG1        0.0100
      5  C         12.1970   -4.7710   33.8300 C.ar    1  LIG1       -0.0490
      6  C         13.2080   -5.1430   32.9440 C.ar    1  LIG1        0.0100
      7  C         14.4320   -4.4730   32.9600 C.ar    1  LIG1        0.0380
      8  C         10.8760   -5.4940   33.8130 C.3     1  LIG1        0.1490
      9  C         10.2090   -5.5350   35.1680 C.2     1  LIG1        0.2630
     10  O          9.4290   -4.6970   35.5990 O.2     1  LIG1       -0.2650
     11  O         10.6110   -6.6620   35.8440 O.3     1  LIG1       -0.3120
     12  C         10.9760   -7.7700   35.0490 C.3     1  LIG1        0.2810
     13  C         12.4280   -8.1200   35.2980 C.2     1  LIG1        0.2430
     14  O         12.8900   -7.9640   36.4320 O.2     1  LIG1       -0.2710
     15  N         13.1640   -8.6140   34.2200 N.am    1  LIG1       -0.3590
     16  C         12.6490   -8.8270   32.8700 C.3     1  LIG1        0.1520
     17  C         14.5630   -8.9730   34.4130 C.3     1  LIG1        0.1520
     18  C         15.9880   -1.8300   32.8630 C.2     1  LIG1        0.2980
     19  O         16.5480   -2.0130   31.7930 O.2     1  LIG1       -0.2590
     20  C         15.3830   -0.5310   33.2510 C.ar    1  LIG1        0.0400
     21  C         14.4040    0.0510   32.4460 C.ar    1  LIG1        0.0200
     22  C         13.8360    1.2720   32.8110 C.ar    1  LIG1        0.0330
     23  C         14.2460    1.9100   33.9810 C.ar    1  LIG1        0.0750
     24  C         15.2250    1.3290   34.7870 C.ar    1  LIG1        0.0330
     25  C         15.7940    0.1080   34.4220 C.ar    1  LIG1        0.0200
     26  N         13.6760    3.1340   34.3470 N.pl3   1  LIG1       -0.0660
     27  C         12.6720    3.1390   35.1910 C.cat   1  LIG1        0.6920
     28  N         12.0810    2.0480   35.7910 N.pl3   1  LIG1       -0.2330
     29  N         12.0840    4.3200   35.5770 N.pl3   1  LIG1       -0.2330
     30  H         12.4110    1.1410   35.5970 H       1  LIG1        0.1740
     31  H         11.3280    2.1760   36.4120 H       1  LIG1        0.1740
     32  H         12.4160    5.1750   35.2190 H       1  LIG1        0.1740
     33  H         11.3320    4.3100   36.2120 H       1  LIG1        0.1740
@<TRIPOS>BOND
     1    19    18    2
     2    21    22   ar
     3    21    20   ar
     4    22    23   ar
     5    18    20    1
     6    18     1    1
     7    16    15    1
     8     6     7   ar
     9     6     5   ar
    10     7     2   ar
    11    20    25   ar
    12     8     5    1
    13     8     9    1
    14     5     4   ar
    15     2     1    1
    16     2     3   ar
    17    23    26    1
    18    23    24   ar
    19    15    17    1
    20    15    13   am
    21    26    27    2
    22    25    24   ar
    23     4     3   ar
    24    12    13    1
    25    12    11    1
    26     9    10    2
    27     9    11    1
    28    27    29    1
    29    27    28    1
    30    32    29    1
    31    13    14    2
    32    29    33    1
    33    30    28    1
    34    28    31    1
