@<TRIPOS>MOLECULE
./../dock_file/temp/7f3995a203679a5c76c2dcf4ca9047ea/Camostat_Ligand_CID_2536:hmTMPRSS11_F:20230418111003/Camostat_Ligand_CID_2536:hmTMPRSS11_F_out_2.pdbqt
 33 34 0 0 0
SMALL
GASTEIGER

@<TRIPOS>ATOM
      1  O         -1.4020  -18.3190   20.8970 O.3     1  LIG1       -0.2750
      2  C         -0.9910  -18.6940   19.6550 C.ar    1  LIG1        0.0790
      3  C         -0.1940  -19.8280   19.4950 C.ar    1  LIG1        0.0380
      4  C          0.2260  -20.2110   18.2230 C.ar    1  LIG1        0.0100
      5  C         -0.1500  -19.4620   17.1080 C.ar    1  LIG1       -0.0490
      6  C         -0.9470  -18.3280   17.2670 C.ar    1  LIG1        0.0100
      7  C         -1.3680  -17.9440   18.5410 C.ar    1  LIG1        0.0380
      8  C          0.3040  -19.8760   15.7320 C.3     1  LIG1        0.1490
      9  C          1.0390  -18.7780   14.9990 C.2     1  LIG1        0.2630
     10  O          0.8510  -18.4550   13.8350 O.2     1  LIG1       -0.2650
     11  O          1.9540  -18.1950   15.8440 O.3     1  LIG1       -0.3120
     12  C          2.7130  -17.1340   15.3050 C.3     1  LIG1        0.2810
     13  C          2.2280  -15.8180   15.8770 C.2     1  LIG1        0.2430
     14  O          1.1780  -15.8050   16.5260 O.2     1  LIG1       -0.2710
     15  N          3.0110  -14.6870   15.6430 N.am    1  LIG1       -0.3590
     16  C          4.2660  -14.6660   14.8940 C.3     1  LIG1        0.1520
     17  C          2.5900  -13.4000   16.1810 C.3     1  LIG1        0.1520
     18  C         -0.5370  -17.4340   21.5460 C.2     1  LIG1        0.2980
     19  O         -0.4050  -16.2480   21.2860 O.2     1  LIG1       -0.2590
     20  C          0.2380  -18.1250   22.6070 C.ar    1  LIG1        0.0400
     21  C         -0.2330  -19.3200   23.1500 C.ar    1  LIG1        0.0200
     22  C          0.4960  -19.9690   24.1460 C.ar    1  LIG1        0.0330
     23  C          1.6950  -19.4230   24.6020 C.ar    1  LIG1        0.0750
     24  C          2.1670  -18.2270   24.0590 C.ar    1  LIG1        0.0330
     25  C          1.4390  -17.5780   23.0620 C.ar    1  LIG1        0.0200
     26  N          2.4260  -20.0740   25.6010 N.pl3   1  LIG1       -0.0660
     27  C          2.1870  -19.7770   26.8560 C.cat   1  LIG1        0.6920
     28  N          1.2700  -18.8680   27.3390 N.pl3   1  LIG1       -0.2330
     29  N          2.8830  -20.3940   27.8690 N.pl3   1  LIG1       -0.2330
     30  H          0.7070  -18.3570   26.7140 H       1  LIG1        0.1740
     31  H          1.1800  -18.7290   28.3100 H       1  LIG1        0.1740
     32  H          3.5680  -21.0670   27.6560 H       1  LIG1        0.1740
     33  H          2.6940  -20.1630   28.8070 H       1  LIG1        0.1740
@<TRIPOS>BOND
     1    10     9    2
     2    16    15    1
     3     9     8    1
     4     9    11    1
     5    12    11    1
     6    12    13    1
     7    15    13   am
     8    15    17    1
     9     8     5    1
    10    13    14    2
    11     5     6   ar
    12     5     4   ar
    13     6     7   ar
    14     4     3   ar
    15     7     2   ar
    16     3     2   ar
    17     2     1    1
    18     1    18    1
    19    19    18    2
    20    18    20    1
    21    20    25   ar
    22    20    21   ar
    23    25    24   ar
    24    21    22   ar
    25    24    23   ar
    26    22    23   ar
    27    23    26    1
    28    26    27    2
    29    30    28    1
    30    27    28    1
    31    27    29    1
    32    28    31    1
    33    32    29    1
    34    29    33    1
@<TRIPOS>MOLECULE
./../dock_file/temp/7f3995a203679a5c76c2dcf4ca9047ea/Camostat_Ligand_CID_2536:hmTMPRSS11_F:20230418111003/Camostat_Ligand_CID_2536:hmTMPRSS11_F_out_2.pdbqt
 33 34 0 0 0
SMALL
GASTEIGER

@<TRIPOS>ATOM
      1  O         -6.2130  -15.8390   25.2000 O.3     1  LIG1       -0.2750
      2  C         -5.4380  -16.2740   24.1700 C.ar    1  LIG1        0.0790
      3  C         -4.5410  -17.3250   24.3660 C.ar    1  LIG1        0.0380
      4  C         -3.7470  -17.7700   23.3100 C.ar    1  LIG1        0.0100
      5  C         -3.8490  -17.1660   22.0570 C.ar    1  LIG1       -0.0490
      6  C         -4.7460  -16.1150   21.8610 C.ar    1  LIG1        0.0100
      7  C         -5.5400  -15.6700   22.9170 C.ar    1  LIG1        0.0380
      8  C         -2.9910  -17.6480   20.9160 C.3     1  LIG1        0.1490
      9  C         -1.9780  -16.6210   20.4670 C.2     1  LIG1        0.2630
     10  O         -2.0990  -15.8800   19.5020 O.2     1  LIG1       -0.2650
     11  O         -0.8940  -16.6460   21.3130 O.3     1  LIG1       -0.3120
     12  C         -0.2780  -17.9020   21.5020 C.3     1  LIG1        0.2810
     13  C          0.7340  -17.8090   22.6250 C.2     1  LIG1        0.2430
     14  O          1.6460  -16.9830   22.5360 O.2     1  LIG1       -0.2710
     15  N          0.5670  -18.6680   23.7120 N.am    1  LIG1       -0.3590
     16  C         -0.5070  -19.6480   23.8610 C.3     1  LIG1        0.1520
     17  C          1.5110  -18.6100   24.8210 C.3     1  LIG1        0.1520
     18  C         -6.2360  -14.4510   25.3560 C.2     1  LIG1        0.2980
     19  O         -7.1470  -13.7110   25.0170 O.2     1  LIG1       -0.2590
     20  C         -4.9820  -13.9620   25.9830 C.ar    1  LIG1        0.0400
     21  C         -4.5290  -14.5310   27.1730 C.ar    1  LIG1        0.0200
     22  C         -3.3510  -14.0720   27.7620 C.ar    1  LIG1        0.0330
     23  C         -2.6260  -13.0430   27.1620 C.ar    1  LIG1        0.0750
     24  C         -3.0790  -12.4720   25.9720 C.ar    1  LIG1        0.0330
     25  C         -4.2570  -12.9320   25.3830 C.ar    1  LIG1        0.0200
     26  N         -1.4450  -12.5820   27.7520 N.pl3   1  LIG1       -0.0660
     27  C         -1.5210  -11.6860   28.7070 C.cat   1  LIG1        0.6920
     28  N         -2.6630  -11.1150   29.2270 N.pl3   1  LIG1       -0.2330
     29  N         -0.3830  -11.2080   29.3140 N.pl3   1  LIG1       -0.2330
     30  H         -3.5450  -11.3730   28.8770 H       1  LIG1        0.1740
     31  H         -2.5940  -10.4470   29.9480 H       1  LIG1        0.1740
     32  H          0.5000  -11.5380   29.0330 H       1  LIG1        0.1740
     33  H         -0.4540  -10.5360   30.0300 H       1  LIG1        0.1740
@<TRIPOS>BOND
     1    10     9    2
     2     9     8    1
     3     9    11    1
     4     8     5    1
     5    11    12    1
     6    12    13    1
     7     6     5   ar
     8     6     7   ar
     9     5     4   ar
    10    14    13    2
    11    13    15   am
    12     7     2   ar
    13     4     3   ar
    14    15    16    1
    15    15    17    1
    16     2     3   ar
    17     2     1    1
    18    19    18    2
    19     1    18    1
    20    18    20    1
    21    25    24   ar
    22    25    20   ar
    23    24    23   ar
    24    20    21   ar
    25    23    26    1
    26    23    22   ar
    27    21    22   ar
    28    26    27    2
    29    27    28    1
    30    27    29    1
    31    30    28    1
    32    32    29    1
    33    28    31    1
    34    29    33    1
@<TRIPOS>MOLECULE
./../dock_file/temp/7f3995a203679a5c76c2dcf4ca9047ea/Camostat_Ligand_CID_2536:hmTMPRSS11_F:20230418111003/Camostat_Ligand_CID_2536:hmTMPRSS11_F_out_2.pdbqt
 33 34 0 0 0
SMALL
GASTEIGER

@<TRIPOS>ATOM
      1  O         -7.2890   -6.8200   28.4850 O.3     1  LIG1       -0.2750
      2  C         -6.7670   -7.8040   27.7030 C.ar    1  LIG1        0.0790
      3  C         -5.6520   -8.5230   28.1350 C.ar    1  LIG1        0.0380
      4  C         -5.1180   -9.5310   27.3340 C.ar    1  LIG1        0.0100
      5  C         -5.6980   -9.8220   26.0990 C.ar    1  LIG1       -0.0490
      6  C         -6.8130   -9.1030   25.6660 C.ar    1  LIG1        0.0100
      7  C         -7.3480   -8.0940   26.4680 C.ar    1  LIG1        0.0380
      8  C         -5.1210  -10.9110   25.2320 C.3     1  LIG1        0.1490
      9  C         -3.6920  -11.2490   25.5860 C.2     1  LIG1        0.2630
     10  O         -2.7550  -10.4640   25.5770 O.2     1  LIG1       -0.2650
     11  O         -3.6050  -12.5800   25.9210 O.3     1  LIG1       -0.3120
     12  C         -2.7080  -12.9040   26.9630 C.3     1  LIG1        0.2810
     13  C         -3.3020  -12.4870   28.2920 C.2     1  LIG1        0.2430
     14  O         -4.4450  -12.8560   28.5740 O.2     1  LIG1       -0.2710
     15  N         -2.5070  -11.7080   29.1340 N.am    1  LIG1       -0.3590
     16  C         -1.1450  -11.2650   28.8430 C.3     1  LIG1        0.1520
     17  C         -3.0310  -11.2900   30.4280 C.3     1  LIG1        0.1520
     18  C         -7.0960   -5.5290   27.9890 C.2     1  LIG1        0.2980
     19  O         -6.0150   -4.9820   27.8270 O.2     1  LIG1       -0.2590
     20  C         -8.3930   -4.8710   27.6880 C.ar    1  LIG1        0.0400
     21  C         -9.2010   -4.4150   28.7280 C.ar    1  LIG1        0.0200
     22  C        -10.4190   -3.7970   28.4460 C.ar    1  LIG1        0.0330
     23  C        -10.8290   -3.6360   27.1230 C.ar    1  LIG1        0.0750
     24  C        -10.0210   -4.0920   26.0810 C.ar    1  LIG1        0.0330
     25  C         -8.8030   -4.7100   26.3640 C.ar    1  LIG1        0.0200
     26  N        -12.0510   -3.0160   26.8390 N.pl3   1  LIG1       -0.0660
     27  C        -12.0720   -1.7210   26.6330 C.cat   1  LIG1        0.6920
     28  N        -11.0010   -0.8540   26.6600 N.pl3   1  LIG1       -0.2330
     29  N        -13.2520   -1.0730   26.3510 N.pl3   1  LIG1       -0.2330
     30  H        -10.0970   -1.1930   26.8520 H       1  LIG1        0.1740
     31  H        -11.1400    0.1060   26.4890 H       1  LIG1        0.1740
     32  H        -14.0930   -1.5820   26.3020 H       1  LIG1        0.1740
     33  H        -13.2540   -0.1010   26.1970 H       1  LIG1        0.1740
@<TRIPOS>BOND
     1     8     9    1
     2     8     5    1
     3    10     9    2
     4     9    11    1
     5     6     5   ar
     6     6     7   ar
     7    11    12    1
     8    24    25   ar
     9    24    23   ar
    10     5     4   ar
    11    33    29    1
    12    32    29    1
    13    29    27    1
    14    25    20   ar
    15     7     2   ar
    16    31    28    1
    17    27    28    1
    18    27    26    2
    19    28    30    1
    20    26    23    1
    21    12    13    1
    22    23    22   ar
    23     4     3   ar
    24    20    18    1
    25    20    21   ar
    26     2     3   ar
    27     2     1    1
    28    19    18    2
    29    18     1    1
    30    13    14    2
    31    13    15   am
    32    22    21   ar
    33    16    15    1
    34    15    17    1
@<TRIPOS>MOLECULE
./../dock_file/temp/7f3995a203679a5c76c2dcf4ca9047ea/Camostat_Ligand_CID_2536:hmTMPRSS11_F:20230418111003/Camostat_Ligand_CID_2536:hmTMPRSS11_F_out_2.pdbqt
 33 34 0 0 0
SMALL
GASTEIGER

@<TRIPOS>ATOM
      1  O         -7.7290   -6.2130   25.8310 O.3     1  LIG1       -0.2750
      2  C         -7.1400   -6.7120   26.9520 C.ar    1  LIG1        0.0790
      3  C         -7.4920   -6.2130   28.2060 C.ar    1  LIG1        0.0380
      4  C         -6.8890   -6.7240   29.3540 C.ar    1  LIG1        0.0100
      5  C         -5.9330   -7.7350   29.2500 C.ar    1  LIG1       -0.0490
      6  C         -5.5810   -8.2340   27.9950 C.ar    1  LIG1        0.0100
      7  C         -6.1850   -7.7220   26.8460 C.ar    1  LIG1        0.0380
      8  C         -5.2810   -8.2870   30.4900 C.3     1  LIG1        0.1490
      9  C         -5.0720   -9.7820   30.4310 C.2     1  LIG1        0.2630
     10  O         -5.9550  -10.6250   30.5150 O.2     1  LIG1       -0.2650
     11  O         -3.7350  -10.0530   30.2650 O.3     1  LIG1       -0.3120
     12  C         -3.4190  -11.2850   29.6520 C.3     1  LIG1        0.2810
     13  C         -2.8650  -11.0360   28.2650 C.2     1  LIG1        0.2430
     14  O         -1.7100  -10.6170   28.1530 O.2     1  LIG1       -0.2710
     15  N         -3.7010  -11.3060   27.1810 N.am    1  LIG1       -0.3590
     16  C         -5.0680  -11.8170   27.2720 C.3     1  LIG1        0.1520
     17  C         -3.2100  -11.0900   25.8260 C.3     1  LIG1        0.1520
     18  C         -8.7990   -6.9760   25.3560 C.2     1  LIG1        0.2980
     19  O         -9.8980   -7.0670   25.8830 O.2     1  LIG1       -0.2590
     20  C         -8.4320   -7.6960   24.1100 C.ar    1  LIG1        0.0400
     21  C         -8.5030   -7.0430   22.8810 C.ar    1  LIG1        0.0200
     22  C         -8.1580   -7.7200   21.7110 C.ar    1  LIG1        0.0330
     23  C         -7.7430   -9.0500   21.7700 C.ar    1  LIG1        0.0750
     24  C         -7.6730   -9.7040   23.0010 C.ar    1  LIG1        0.0330
     25  C         -8.0180   -9.0270   24.1710 C.ar    1  LIG1        0.0200
     26  N         -7.3970   -9.7280   20.5970 N.pl3   1  LIG1       -0.0660
     27  C         -8.3500  -10.2530   19.8640 C.cat   1  LIG1        0.6920
     28  N         -9.7060  -10.2220   20.1100 N.pl3   1  LIG1       -0.2330
     29  N         -8.0520  -10.9280   18.7030 N.pl3   1  LIG1       -0.2330
     30  H        -10.0500   -9.7680   20.9120 H       1  LIG1        0.1740
     31  H        -10.3290  -10.6550   19.4830 H       1  LIG1        0.1740
     32  H         -7.1160  -11.0200   18.4140 H       1  LIG1        0.1740
     33  H         -8.7760  -11.3170   18.1610 H       1  LIG1        0.1740
@<TRIPOS>BOND
     1    33    29    1
     2    32    29    1
     3    29    27    1
     4    31    28    1
     5    27    28    1
     6    27    26    2
     7    28    30    1
     8    26    23    1
     9    22    23   ar
    10    22    21   ar
    11    23    24   ar
    12    21    20   ar
    13    24    25   ar
    14    20    25   ar
    15    20    18    1
    16    18     1    1
    17    18    19    2
    18    17    15    1
    19     1     2    1
    20     7     2   ar
    21     7     6   ar
    22     2     3   ar
    23    15    16    1
    24    15    13   am
    25     6     5   ar
    26    14    13    2
    27     3     4   ar
    28    13    12    1
    29     5     4   ar
    30     5     8    1
    31    12    11    1
    32    11     9    1
    33     9     8    1
    34     9    10    2
@<TRIPOS>MOLECULE
./../dock_file/temp/7f3995a203679a5c76c2dcf4ca9047ea/Camostat_Ligand_CID_2536:hmTMPRSS11_F:20230418111003/Camostat_Ligand_CID_2536:hmTMPRSS11_F_out_2.pdbqt
 33 34 0 0 0
SMALL
GASTEIGER

@<TRIPOS>ATOM
      1  O         -4.9330  -10.5140   28.9940 O.3     1  LIG1       -0.2750
      2  C         -5.4190   -9.2600   28.7910 C.ar    1  LIG1        0.0790
      3  C         -5.5960   -8.7810   27.4930 C.ar    1  LIG1        0.0380
      4  C         -6.0940   -7.4950   27.2860 C.ar    1  LIG1        0.0100
      5  C         -6.4170   -6.6880   28.3770 C.ar    1  LIG1       -0.0490
      6  C         -6.2400   -7.1670   29.6750 C.ar    1  LIG1        0.0100
      7  C         -5.7420   -8.4530   29.8820 C.ar    1  LIG1        0.0380
      8  C         -6.9560   -5.2980   28.1530 C.3     1  LIG1        0.1490
      9  C         -8.4390   -5.2810   27.8660 C.2     1  LIG1        0.2630
     10  O         -9.2450   -6.1150   28.2530 O.2     1  LIG1       -0.2650
     11  O         -8.7460   -4.1790   27.1040 O.3     1  LIG1       -0.3120
     12  C         -9.5980   -4.4010   26.0000 C.3     1  LIG1        0.2810
     13  C         -8.8380   -5.1250   24.9080 C.2     1  LIG1        0.2430
     14  O         -7.8060   -4.6130   24.4640 O.2     1  LIG1       -0.2710
     15  N         -9.3510   -6.3460   24.4690 N.am    1  LIG1       -0.3590
     16  C        -10.5590   -6.9900   24.9800 C.3     1  LIG1        0.1520
     17  C         -8.6500   -7.0840   23.4260 C.3     1  LIG1        0.1520
     18  C         -3.7550  -10.7940   28.2970 C.2     1  LIG1        0.2980
     19  O         -2.6540  -10.3250   28.5410 O.2     1  LIG1       -0.2590
     20  C         -4.0050  -11.7430   27.1820 C.ar    1  LIG1        0.0400
     21  C         -5.0890  -12.6180   27.2410 C.ar    1  LIG1        0.0200
     22  C         -5.3240  -13.5090   26.1940 C.ar    1  LIG1        0.0330
     23  C         -4.4750  -13.5240   25.0870 C.ar    1  LIG1        0.0750
     24  C         -3.3910  -12.6490   25.0270 C.ar    1  LIG1        0.0330
     25  C         -3.1560  -11.7580   26.0750 C.ar    1  LIG1        0.0200
     26  N         -4.7110  -14.4180   24.0370 N.pl3   1  LIG1       -0.0660
     27  C         -5.5670  -14.0830   23.1010 C.cat   1  LIG1        0.6920
     28  N         -6.2950  -12.9170   23.0140 N.pl3   1  LIG1       -0.2330
     29  N         -5.8270  -14.9330   22.0510 N.pl3   1  LIG1       -0.2330
     30  H         -6.2000  -12.2240   23.7060 H       1  LIG1        0.1740
     31  H         -6.9120  -12.7770   22.2590 H       1  LIG1        0.1740
     32  H         -5.3690  -15.8020   21.9960 H       1  LIG1        0.1740
     33  H         -6.4710  -14.6700   21.3540 H       1  LIG1        0.1740
@<TRIPOS>BOND
     1    33    29    1
     2    32    29    1
     3    29    27    1
     4    31    28    1
     5    28    27    1
     6    28    30    1
     7    27    26    2
     8    17    15    1
     9    26    23    1
    10    14    13    2
    11    15    13   am
    12    15    16    1
    13    13    12    1
    14    24    23   ar
    15    24    25   ar
    16    23    22   ar
    17    12    11    1
    18    25    20   ar
    19    22    21   ar
    20    11     9    1
    21    20    21   ar
    22    20    18    1
    23     4     3   ar
    24     4     5   ar
    25     3     2   ar
    26     9     8    1
    27     9    10    2
    28     8     5    1
    29    18    19    2
    30    18     1    1
    31     5     6   ar
    32     2     1    1
    33     2     7   ar
    34     6     7   ar
@<TRIPOS>MOLECULE
./../dock_file/temp/7f3995a203679a5c76c2dcf4ca9047ea/Camostat_Ligand_CID_2536:hmTMPRSS11_F:20230418111003/Camostat_Ligand_CID_2536:hmTMPRSS11_F_out_2.pdbqt
 33 34 0 0 0
SMALL
GASTEIGER

@<TRIPOS>ATOM
      1  O         -6.7990   -8.2650   27.1250 O.3     1  LIG1       -0.2750
      2  C         -5.7660   -9.1510   27.1400 C.ar    1  LIG1        0.0790
      3  C         -4.9630   -9.3070   26.0100 C.ar    1  LIG1        0.0380
      4  C         -3.9050  -10.2150   26.0260 C.ar    1  LIG1        0.0100
      5  C         -3.6490  -10.9680   27.1730 C.ar    1  LIG1       -0.0490
      6  C         -4.4520  -10.8120   28.3030 C.ar    1  LIG1        0.0100
      7  C         -5.5100   -9.9030   28.2870 C.ar    1  LIG1        0.0380
      8  C         -2.5050  -11.9490   27.1910 C.3     1  LIG1        0.1490
      9  C         -1.4720  -11.6300   28.2450 C.2     1  LIG1        0.2630
     10  O         -0.9510  -10.5370   28.4200 O.2     1  LIG1       -0.2650
     11  O         -1.2050  -12.7590   28.9830 O.3     1  LIG1       -0.3120
     12  C         -2.2090  -13.7520   28.9890 C.3     1  LIG1        0.2810
     13  C         -1.8250  -14.8590   29.9500 C.2     1  LIG1        0.2430
     14  O         -0.8640  -14.6830   30.7040 O.2     1  LIG1       -0.2710
     15  N         -2.5950  -16.0220   29.9310 N.am    1  LIG1       -0.3590
     16  C         -3.7470  -16.2610   29.0640 C.3     1  LIG1        0.1520
     17  C         -2.2690  -17.1110   30.8420 C.3     1  LIG1        0.1520
     18  C         -6.4810   -7.0040   27.6350 C.2     1  LIG1        0.2980
     19  O         -5.5230   -6.7430   28.3460 O.2     1  LIG1       -0.2590
     20  C         -7.4810   -5.9890   27.2150 C.ar    1  LIG1        0.0400
     21  C         -8.1500   -5.2310   28.1740 C.ar    1  LIG1        0.0200
     22  C         -9.0890   -4.2780   27.7800 C.ar    1  LIG1        0.0330
     23  C         -9.3590   -4.0840   26.4250 C.ar    1  LIG1        0.0750
     24  C         -8.6900   -4.8420   25.4650 C.ar    1  LIG1        0.0330
     25  C         -7.7510   -5.7960   25.8600 C.ar    1  LIG1        0.0200
     26  N        -10.3010   -3.1280   26.0300 N.pl3   1  LIG1       -0.0660
     27  C        -11.5370   -3.5080   25.8110 C.cat   1  LIG1        0.6920
     28  N        -12.0510   -4.7820   25.9240 N.pl3   1  LIG1       -0.2330
     29  N        -12.4930   -2.6000   25.4200 N.pl3   1  LIG1       -0.2330
     30  H        -11.4670   -5.5250   26.1970 H       1  LIG1        0.1740
     31  H        -13.0020   -4.9470   25.7310 H       1  LIG1        0.1740
     32  H        -12.2530   -1.6530   25.3030 H       1  LIG1        0.1740
     33  H        -13.4170   -2.8980   25.2590 H       1  LIG1        0.1740
@<TRIPOS>BOND
     1    33    29    1
     2    32    29    1
     3    29    27    1
     4    24    25   ar
     5    24    23   ar
     6    31    28    1
     7    27    28    1
     8    27    26    2
     9    25    20   ar
    10    28    30    1
    11     3     4   ar
    12     3     2   ar
    13     4     5   ar
    14    26    23    1
    15    23    22   ar
    16     1     2    1
    17     1    18    1
    18     2     7   ar
    19     5     8    1
    20     5     6   ar
    21     8     9    1
    22    20    18    1
    23    20    21   ar
    24    18    19    2
    25    22    21   ar
    26     9    10    2
    27     9    11    1
    28     7     6   ar
    29    11    12    1
    30    12    13    1
    31    16    15    1
    32    15    13   am
    33    15    17    1
    34    13    14    2
@<TRIPOS>MOLECULE
./../dock_file/temp/7f3995a203679a5c76c2dcf4ca9047ea/Camostat_Ligand_CID_2536:hmTMPRSS11_F:20230418111003/Camostat_Ligand_CID_2536:hmTMPRSS11_F_out_2.pdbqt
 33 34 0 0 0
SMALL
GASTEIGER

@<TRIPOS>ATOM
      1  O         -1.3540  -18.1170   20.4660 O.3     1  LIG1       -0.2750
      2  C         -0.7760  -18.3550   19.2570 C.ar    1  LIG1        0.0790
      3  C         -0.2210  -19.6050   18.9820 C.ar    1  LIG1        0.0380
      4  C          0.3700  -19.8490   17.7440 C.ar    1  LIG1        0.0100
      5  C          0.4060  -18.8430   16.7770 C.ar    1  LIG1       -0.0490
      6  C         -0.1500  -17.5930   17.0520 C.ar    1  LIG1        0.0100
      7  C         -0.7410  -17.3490   18.2910 C.ar    1  LIG1        0.0380
      8  C          1.0450  -19.1060   15.4380 C.3     1  LIG1        0.1490
      9  C          2.5540  -19.0820   15.4910 C.2     1  LIG1        0.2630
     10  O          3.2450  -18.0760   15.5770 O.2     1  LIG1       -0.2650
     11  O          3.0360  -20.3680   15.4290 O.3     1  LIG1       -0.3120
     12  C          3.0110  -20.9830   14.1580 C.3     1  LIG1        0.2810
     13  C          3.2950  -22.4640   14.3040 C.2     1  LIG1        0.2430
     14  O          4.4690  -22.8390   14.3770 O.2     1  LIG1       -0.2710
     15  N          2.1990  -23.3260   14.3550 N.am    1  LIG1       -0.3590
     16  C          0.7980  -22.9200   14.2870 C.3     1  LIG1        0.1520
     17  C          2.4220  -24.7590   14.5030 C.3     1  LIG1        0.1520
     18  C         -0.6360  -17.2400   21.2830 C.2     1  LIG1        0.2980
     19  O         -0.6220  -16.0220   21.1820 O.2     1  LIG1       -0.2590
     20  C          0.1440  -17.9790   22.3080 C.ar    1  LIG1        0.0400
     21  C          1.2710  -17.3930   22.8830 C.ar    1  LIG1        0.0200
     22  C          2.0030  -18.0880   23.8470 C.ar    1  LIG1        0.0330
     23  C          1.6090  -19.3680   24.2330 C.ar    1  LIG1        0.0750
     24  C          0.4820  -19.9550   23.6570 C.ar    1  LIG1        0.0330
     25  C         -0.2500  -19.2610   22.6940 C.ar    1  LIG1        0.0200
     26  N          2.3430  -20.0650   25.1990 N.pl3   1  LIG1       -0.0660
     27  C          2.1760  -19.7600   26.4640 C.cat   1  LIG1        0.6920
     28  N          1.3350  -18.8020   26.9870 N.pl3   1  LIG1       -0.2330
     29  N          2.8780  -20.4210   27.4440 N.pl3   1  LIG1       -0.2330
     30  H          0.7760  -18.2580   26.3890 H       1  LIG1        0.1740
     31  H          1.2950  -18.6630   27.9620 H       1  LIG1        0.1740
     32  H          3.5140  -21.1310   27.2000 H       1  LIG1        0.1740
     33  H          2.7440  -20.1840   28.3900 H       1  LIG1        0.1740
@<TRIPOS>BOND
     1    12    13    1
     2    12    11    1
     3    16    15    1
     4    13    15   am
     5    13    14    2
     6    15    17    1
     7    11     9    1
     8     8     9    1
     9     8     5    1
    10     9    10    2
    11     5     6   ar
    12     5     4   ar
    13     6     7   ar
    14     4     3   ar
    15     7     2   ar
    16     3     2   ar
    17     2     1    1
    18     1    18    1
    19    19    18    2
    20    18    20    1
    21    20    25   ar
    22    20    21   ar
    23    25    24   ar
    24    21    22   ar
    25    24    23   ar
    26    22    23   ar
    27    23    26    1
    28    26    27    2
    29    30    28    1
    30    27    28    1
    31    27    29    1
    32    28    31    1
    33    32    29    1
    34    29    33    1
@<TRIPOS>MOLECULE
./../dock_file/temp/7f3995a203679a5c76c2dcf4ca9047ea/Camostat_Ligand_CID_2536:hmTMPRSS11_F:20230418111003/Camostat_Ligand_CID_2536:hmTMPRSS11_F_out_2.pdbqt
 33 34 0 0 0
SMALL
GASTEIGER

@<TRIPOS>ATOM
      1  O          7.8650  -19.0250   11.5360 O.3     1  LIG1       -0.2750
      2  C          9.0350  -19.1820   12.2140 C.ar    1  LIG1        0.0790
      3  C          9.0990  -20.0520   13.3020 C.ar    1  LIG1        0.0380
      4  C         10.2980  -20.2140   13.9960 C.ar    1  LIG1        0.0100
      5  C         11.4340  -19.5060   13.6010 C.ar    1  LIG1       -0.0490
      6  C         11.3690  -18.6360   12.5120 C.ar    1  LIG1        0.0100
      7  C         10.1700  -18.4750   11.8180 C.ar    1  LIG1        0.0380
      8  C         12.7290  -19.6800   14.3500 C.3     1  LIG1        0.1490
      9  C         13.3440  -21.0460   14.1530 C.2     1  LIG1        0.2630
     10  O         13.3950  -21.9290   14.9980 O.2     1  LIG1       -0.2650
     11  O         13.8390  -21.1470   12.8740 O.3     1  LIG1       -0.3120
     12  C         13.6250  -22.3780   12.2170 C.3     1  LIG1        0.2810
     13  C         12.2640  -22.3710   11.5540 C.2     1  LIG1        0.2430
     14  O         11.3330  -22.9670   12.1030 O.2     1  LIG1       -0.2710
     15  N         12.1390  -21.6750   10.3510 N.am    1  LIG1       -0.3590
     16  C         13.2120  -20.9460    9.6790 C.3     1  LIG1        0.1520
     17  C         10.8470  -21.6330    9.6790 C.3     1  LIG1        0.1520
     18  C          7.5810  -20.0510   10.6320 C.2     1  LIG1        0.2980
     19  O          7.8710  -20.0550    9.4450 O.2     1  LIG1       -0.2590
     20  C          6.8520  -21.1620   11.2950 C.ar    1  LIG1        0.0400
     21  C          7.3070  -22.4730   11.1590 C.ar    1  LIG1        0.0200
     22  C          6.6220  -23.5170   11.7810 C.ar    1  LIG1        0.0330
     23  C          5.4830  -23.2490   12.5390 C.ar    1  LIG1        0.0750
     24  C          5.0270  -21.9380   12.6760 C.ar    1  LIG1        0.0330
     25  C          5.7120  -20.8940   12.0530 C.ar    1  LIG1        0.0200
     26  N          4.7960  -24.2960   13.1640 N.pl3   1  LIG1       -0.0660
     27  C          5.0490  -24.5580   14.4240 C.cat   1  LIG1        0.6920
     28  N          5.9430  -23.9080   15.2480 N.pl3   1  LIG1       -0.2330
     29  N          4.3960  -25.5780   15.0740 N.pl3   1  LIG1       -0.2330
     30  H          6.4760  -23.1570   14.9010 H       1  LIG1        0.1740
     31  H          6.0480  -24.1970   16.1840 H       1  LIG1        0.1740
     32  H          3.7300  -26.1200   14.5950 H       1  LIG1        0.1740
     33  H          4.5950  -25.7640   16.0210 H       1  LIG1        0.1740
@<TRIPOS>BOND
     1    19    18    2
     2    17    15    1
     3    16    15    1
     4    15    13   am
     5    18    20    1
     6    18     1    1
     7    21    20   ar
     8    21    22   ar
     9    20    25   ar
    10     1     2    1
    11    13    14    2
    12    13    12    1
    13    22    23   ar
    14     7     2   ar
    15     7     6   ar
    16    25    24   ar
    17     2     3   ar
    18    12    11    1
    19     6     5   ar
    20    23    24   ar
    21    23    26    1
    22    11     9    1
    23    26    27    2
    24     3     4   ar
    25     5     4   ar
    26     5     8    1
    27     9     8    1
    28     9    10    2
    29    27    29    1
    30    27    28    1
    31    32    29    1
    32    30    28    1
    33    29    33    1
    34    28    31    1
@<TRIPOS>MOLECULE
./../dock_file/temp/7f3995a203679a5c76c2dcf4ca9047ea/Camostat_Ligand_CID_2536:hmTMPRSS11_F:20230418111003/Camostat_Ligand_CID_2536:hmTMPRSS11_F_out_2.pdbqt
 33 34 0 0 0
SMALL
GASTEIGER

@<TRIPOS>ATOM
      1  O         -2.8500  -17.7220   20.0090 O.3     1  LIG1       -0.2750
      2  C         -1.8670  -17.9140   20.9300 C.ar    1  LIG1        0.0790
      3  C         -1.9650  -18.9610   21.8470 C.ar    1  LIG1        0.0380
      4  C         -0.9570  -19.1580   22.7900 C.ar    1  LIG1        0.0100
      5  C          0.1500  -18.3090   22.8170 C.ar    1  LIG1       -0.0490
      6  C          0.2470  -17.2620   21.8990 C.ar    1  LIG1        0.0100
      7  C         -0.7610  -17.0650   20.9560 C.ar    1  LIG1        0.0380
      8  C          1.2390  -18.5210   23.8360 C.3     1  LIG1        0.1490
      9  C          1.5770  -19.9790   24.0420 C.2     1  LIG1        0.2630
     10  O          2.1660  -20.6900   23.2400 O.2     1  LIG1       -0.2650
     11  O          1.1210  -20.3870   25.2730 O.3     1  LIG1       -0.3120
     12  C          1.8310  -19.9030   26.3930 C.3     1  LIG1        0.2810
     13  C          2.4700  -21.0610   27.1300 C.2     1  LIG1        0.2430
     14  O          2.9340  -21.9980   26.4740 O.2     1  LIG1       -0.2710
     15  N          2.5060  -20.9960   28.5230 N.am    1  LIG1       -0.3590
     16  C          1.9810  -19.8990   29.3330 C.3     1  LIG1        0.1520
     17  C          3.1180  -22.0830   29.2760 C.3     1  LIG1        0.1520
     18  C         -3.8600  -16.8480   20.4200 C.2     1  LIG1        0.2980
     19  O         -4.4850  -16.9230   21.4660 O.2     1  LIG1       -0.2590
     20  C         -4.1030  -15.7950   19.4010 C.ar    1  LIG1        0.0400
     21  C         -3.1550  -15.5530   18.4080 C.ar    1  LIG1        0.0200
     22  C         -3.3850  -14.5640   17.4510 C.ar    1  LIG1        0.0330
     23  C         -4.5610  -13.8170   17.4880 C.ar    1  LIG1        0.0750
     24  C         -5.5100  -14.0590   18.4810 C.ar    1  LIG1        0.0330
     25  C         -5.2810  -15.0470   19.4380 C.ar    1  LIG1        0.0200
     26  N         -4.7910  -12.8250   16.5280 N.pl3   1  LIG1       -0.0660
     27  C         -4.4550  -11.5880   16.8020 C.cat   1  LIG1        0.6920
     28  N         -3.8810  -11.1170   17.9630 N.pl3   1  LIG1       -0.2330
     29  N         -4.6640  -10.5840   15.8860 N.pl3   1  LIG1       -0.2330
     30  H         -3.6800  -11.7370   18.7000 H       1  LIG1        0.1740
     31  H         -3.6720  -10.1580   18.0550 H       1  LIG1        0.1740
     32  H         -5.0690  -10.7900   15.0130 H       1  LIG1        0.1740
     33  H         -4.4070   -9.6580   16.1040 H       1  LIG1        0.1740
@<TRIPOS>BOND
     1    32    29    1
     2    29    33    1
     3    29    27    1
     4    26    27    2
     5    26    23    1
     6    27    28    1
     7    22    23   ar
     8    22    21   ar
     9    23    24   ar
    10    28    31    1
    11    28    30    1
    12    21    20   ar
    13    24    25   ar
    14    20    25   ar
    15    20    18    1
    16     1    18    1
    17     1     2    1
    18    18    19    2
    19     2     7   ar
    20     2     3   ar
    21     7     6   ar
    22     3     4   ar
    23     6     5   ar
    24     4     5   ar
    25     5     8    1
    26    10     9    2
    27     8     9    1
    28     9    11    1
    29    11    12    1
    30    12    13    1
    31    14    13    2
    32    13    15   am
    33    15    17    1
    34    15    16    1
