@<TRIPOS>MOLECULE
./../dock_file/temp/7f3995a203679a5c76c2dcf4ca9047ea/Camostat_Ligand_CID_2536:hmTMPRSS11_F:20230418111003/Camostat_Ligand_CID_2536:hmTMPRSS11_F_out_4.pdbqt
 33 34 0 0 0
SMALL
GASTEIGER

@<TRIPOS>ATOM
      1  O         15.4940   -4.4700   31.4590 O.3     1  LIG1       -0.2750
      2  C         14.3040   -4.7720   32.0450 C.ar    1  LIG1        0.0790
      3  C         14.0630   -4.4010   33.3680 C.ar    1  LIG1        0.0380
      4  C         12.8430   -4.7100   33.9680 C.ar    1  LIG1        0.0100
      5  C         11.8620   -5.3890   33.2450 C.ar    1  LIG1       -0.0490
      6  C         12.1030   -5.7600   31.9220 C.ar    1  LIG1        0.0100
      7  C         13.3230   -5.4510   31.3220 C.ar    1  LIG1        0.0380
      8  C         10.5430   -5.7230   33.8930 C.3     1  LIG1        0.1490
      9  C         10.6400   -6.8740   34.8670 C.2     1  LIG1        0.2630
     10  O         10.4870   -6.7930   36.0780 O.2     1  LIG1       -0.2650
     11  O         10.9270   -8.0310   34.1830 O.3     1  LIG1       -0.3120
     12  C         12.0130   -8.7910   34.6680 C.3     1  LIG1        0.2810
     13  C         13.1760   -8.6920   33.7020 C.2     1  LIG1        0.2430
     14  O         13.0300   -9.1180   32.5530 O.2     1  LIG1       -0.2710
     15  N         14.3540   -8.1110   34.1720 N.am    1  LIG1       -0.3590
     16  C         14.5590   -7.5830   35.5190 C.3     1  LIG1        0.1520
     17  C         15.4970   -7.9860   33.2770 C.3     1  LIG1        0.1520
     18  C         15.3810   -3.8120   30.2320 C.2     1  LIG1        0.2980
     19  O         14.9180   -2.6940   30.0630 O.2     1  LIG1       -0.2590
     20  C         15.8870   -4.6590   29.1220 C.ar    1  LIG1        0.0400
     21  C         16.3670   -5.9410   29.3860 C.ar    1  LIG1        0.0200
     22  C         16.8420   -6.7360   28.3430 C.ar    1  LIG1        0.0330
     23  C         16.8370   -6.2490   27.0360 C.ar    1  LIG1        0.0750
     24  C         16.3570   -4.9660   26.7710 C.ar    1  LIG1        0.0330
     25  C         15.8820   -4.1710   27.8150 C.ar    1  LIG1        0.0200
     26  N         17.3140   -7.0470   25.9900 N.pl3   1  LIG1       -0.0660
     27  C         16.6140   -7.1250   24.8840 C.cat   1  LIG1        0.6920
     28  N         15.4180   -6.4980   24.6060 N.pl3   1  LIG1       -0.2330
     29  N         17.0470   -7.8980   23.8320 N.pl3   1  LIG1       -0.2330
     30  H         15.0000   -5.9150   25.2790 H       1  LIG1        0.1740
     31  H         14.9820   -6.6350   23.7330 H       1  LIG1        0.1740
     32  H         17.8910   -8.3990   23.9040 H       1  LIG1        0.1740
     33  H         16.5130   -7.9490   23.0070 H       1  LIG1        0.1740
@<TRIPOS>BOND
     1    33    29    1
     2    31    28    1
     3    29    32    1
     4    29    27    1
     5    28    27    1
     6    28    30    1
     7    27    26    2
     8    26    23    1
     9    24    23   ar
    10    24    25   ar
    11    23    22   ar
    12    25    20   ar
    13    22    21   ar
    14    20    21   ar
    15    20    18    1
    16    19    18    2
    17    18     1    1
    18     7     6   ar
    19     7     2   ar
    20     1     2    1
    21     6     5   ar
    22     2     3   ar
    23    14    13    2
    24     5     8    1
    25     5     4   ar
    26    17    15    1
    27     3     4   ar
    28    13    15   am
    29    13    12    1
    30     8     9    1
    31    15    16    1
    32    11    12    1
    33    11     9    1
    34     9    10    2
@<TRIPOS>MOLECULE
./../dock_file/temp/7f3995a203679a5c76c2dcf4ca9047ea/Camostat_Ligand_CID_2536:hmTMPRSS11_F:20230418111003/Camostat_Ligand_CID_2536:hmTMPRSS11_F_out_4.pdbqt
 33 34 0 0 0
SMALL
GASTEIGER

@<TRIPOS>ATOM
      1  O         12.7500   -7.5150   33.6690 O.3     1  LIG1       -0.2750
      2  C         13.5760   -6.6330   33.0430 C.ar    1  LIG1        0.0790
      3  C         14.5910   -7.0990   32.2070 C.ar    1  LIG1        0.0380
      4  C         15.4370   -6.1950   31.5660 C.ar    1  LIG1        0.0100
      5  C         15.2690   -4.8240   31.7600 C.ar    1  LIG1       -0.0490
      6  C         14.2550   -4.3580   32.5960 C.ar    1  LIG1        0.0100
      7  C         13.4080   -5.2620   33.2370 C.ar    1  LIG1        0.0380
      8  C         16.1840   -3.8470   31.0680 C.3     1  LIG1        0.1490
      9  C         15.4480   -2.9060   30.1430 C.2     1  LIG1        0.2630
     10  O         15.2640   -1.7130   30.3450 O.2     1  LIG1       -0.2650
     11  O         15.0170   -3.5950   29.0340 O.3     1  LIG1       -0.3120
     12  C         16.0140   -4.2500   28.2790 C.3     1  LIG1        0.2810
     13  C         15.4810   -4.5660   26.8970 C.2     1  LIG1        0.2430
     14  O         14.5200   -3.9210   26.4700 O.2     1  LIG1       -0.2710
     15  N         16.1230   -5.5740   26.1760 N.am    1  LIG1       -0.3590
     16  C         17.2720   -6.3480   26.6410 C.3     1  LIG1        0.1520
     17  C         15.6520   -5.9080   24.8380 C.3     1  LIG1        0.1520
     18  C         11.9280   -8.2430   32.8060 C.2     1  LIG1        0.2980
     19  O         11.1710   -7.7680   31.9730 O.2     1  LIG1       -0.2590
     20  C         12.0710   -9.7030   33.0350 C.ar    1  LIG1        0.0400
     21  C         13.2810  -10.2210   33.4950 C.ar    1  LIG1        0.0200
     22  C         13.4160  -11.5930   33.7100 C.ar    1  LIG1        0.0330
     23  C         12.3400  -12.4470   33.4660 C.ar    1  LIG1        0.0750
     24  C         11.1290  -11.9290   33.0060 C.ar    1  LIG1        0.0330
     25  C         10.9950  -10.5570   32.7900 C.ar    1  LIG1        0.0200
     26  N         12.4750  -13.8220   33.6820 N.pl3   1  LIG1       -0.0660
     27  C         12.5810  -14.2630   34.9130 C.cat   1  LIG1        0.6920
     28  N         12.5780  -13.5150   36.0700 N.pl3   1  LIG1       -0.2330
     29  N         12.7160  -15.6070   35.1680 N.pl3   1  LIG1       -0.2330
     30  H         12.4880  -12.5360   36.0240 H       1  LIG1        0.1740
     31  H         12.6660  -13.9610   36.9440 H       1  LIG1        0.1740
     32  H         12.7320  -16.2500   34.4240 H       1  LIG1        0.1740
     33  H         12.7940  -15.9260   36.0970 H       1  LIG1        0.1740
@<TRIPOS>BOND
     1    17    15    1
     2    15    16    1
     3    15    13   am
     4    14    13    2
     5    13    12    1
     6    12    11    1
     7    11     9    1
     8     9    10    2
     9     9     8    1
    10     8     5    1
    11     4     5   ar
    12     4     3   ar
    13     5     6   ar
    14    19    18    2
    15     3     2   ar
    16     6     7   ar
    17    25    24   ar
    18    25    20   ar
    19    18    20    1
    20    18     1    1
    21    24    23   ar
    22    20    21   ar
    23     2     7   ar
    24     2     1    1
    25    23    26    1
    26    23    22   ar
    27    21    22   ar
    28    26    27    2
    29    32    29    1
    30    27    29    1
    31    27    28    1
    32    29    33    1
    33    30    28    1
    34    28    31    1
@<TRIPOS>MOLECULE
./../dock_file/temp/7f3995a203679a5c76c2dcf4ca9047ea/Camostat_Ligand_CID_2536:hmTMPRSS11_F:20230418111003/Camostat_Ligand_CID_2536:hmTMPRSS11_F_out_4.pdbqt
 33 34 0 0 0
SMALL
GASTEIGER

@<TRIPOS>ATOM
      1  O         13.9640   -4.5720   30.2100 O.3     1  LIG1       -0.2750
      2  C         14.3010   -5.0950   31.4210 C.ar    1  LIG1        0.0790
      3  C         14.4410   -4.2590   32.5280 C.ar    1  LIG1        0.0380
      4  C         14.7860   -4.7950   33.7680 C.ar    1  LIG1        0.0100
      5  C         14.9910   -6.1680   33.9020 C.ar    1  LIG1       -0.0490
      6  C         14.8520   -7.0050   32.7940 C.ar    1  LIG1        0.0100
      7  C         14.5060   -6.4680   31.5530 C.ar    1  LIG1        0.0380
      8  C         15.3650   -6.7480   35.2410 C.3     1  LIG1        0.1490
      9  C         14.2460   -6.6610   36.2530 C.2     1  LIG1        0.2630
     10  O         14.0850   -5.7510   37.0540 O.2     1  LIG1       -0.2650
     11  O         13.4340   -7.7640   36.1360 O.3     1  LIG1       -0.3120
     12  C         12.0500   -7.5100   36.0200 C.3     1  LIG1        0.2810
     13  C         11.6800   -7.3620   34.5590 C.2     1  LIG1        0.2430
     14  O         11.6950   -8.3640   33.8390 O.2     1  LIG1       -0.2710
     15  N         11.3300   -6.0880   34.1100 N.am    1  LIG1       -0.3590
     16  C         11.2860   -4.8820   34.9340 C.3     1  LIG1        0.1520
     17  C         10.9580   -5.8980   32.7140 C.3     1  LIG1        0.1520
     18  C         15.0000   -3.8860   29.5720 C.2     1  LIG1        0.2980
     19  O         15.4160   -2.7780   29.8780 O.2     1  LIG1       -0.2590
     20  C         15.5430   -4.6720   28.4350 C.ar    1  LIG1        0.0400
     21  C         15.1330   -4.3900   27.1330 C.ar    1  LIG1        0.0200
     22  C         15.6430   -5.1280   26.0650 C.ar    1  LIG1        0.0330
     23  C         16.5640   -6.1490   26.3000 C.ar    1  LIG1        0.0750
     24  C         16.9740   -6.4320   27.6030 C.ar    1  LIG1        0.0330
     25  C         16.4640   -5.6940   28.6710 C.ar    1  LIG1        0.0200
     26  N         17.0750   -6.8900   25.2290 N.pl3   1  LIG1       -0.0660
     27  C         16.2620   -7.2640   24.2710 C.cat   1  LIG1        0.6920
     28  N         14.9100   -7.0130   24.1780 N.pl3   1  LIG1       -0.2330
     29  N         16.7250   -7.9930   23.2010 N.pl3   1  LIG1       -0.2330
     30  H         14.4550   -6.4990   24.8840 H       1  LIG1        0.1740
     31  H         14.3990   -7.3480   23.4060 H       1  LIG1        0.1740
     32  H         17.6760   -8.2390   23.1480 H       1  LIG1        0.1740
     33  H         16.1040   -8.2680   22.4880 H       1  LIG1        0.1740
@<TRIPOS>BOND
     1    33    29    1
     2    32    29    1
     3    29    27    1
     4    31    28    1
     5    28    27    1
     6    28    30    1
     7    27    26    2
     8    26    23    1
     9    22    23   ar
    10    22    21   ar
    11    23    24   ar
    12    21    20   ar
    13    24    25   ar
    14    20    25   ar
    15    20    18    1
    16    18    19    2
    17    18     1    1
    18     1     2    1
    19     2     7   ar
    20     2     3   ar
    21     7     6   ar
    22     3     4   ar
    23    17    15    1
    24     6     5   ar
    25     4     5   ar
    26    14    13    2
    27     5     8    1
    28    15    13   am
    29    15    16    1
    30    13    12    1
    31     8     9    1
    32    12    11    1
    33    11     9    1
    34     9    10    2
@<TRIPOS>MOLECULE
./../dock_file/temp/7f3995a203679a5c76c2dcf4ca9047ea/Camostat_Ligand_CID_2536:hmTMPRSS11_F:20230418111003/Camostat_Ligand_CID_2536:hmTMPRSS11_F_out_4.pdbqt
 33 34 0 0 0
SMALL
GASTEIGER

@<TRIPOS>ATOM
      1  O         12.5510   -8.4140   33.7890 O.3     1  LIG1       -0.2750
      2  C         13.2890   -7.4980   33.1060 C.ar    1  LIG1        0.0790
      3  C         14.6360   -7.7460   32.8390 C.ar    1  LIG1        0.0380
      4  C         15.3930   -6.8080   32.1390 C.ar    1  LIG1        0.0100
      5  C         14.8030   -5.6210   31.7020 C.ar    1  LIG1       -0.0490
      6  C         13.4560   -5.3730   31.9690 C.ar    1  LIG1        0.0100
      7  C         12.6990   -6.3120   32.6700 C.ar    1  LIG1        0.0380
      8  C         15.6200   -4.6070   30.9450 C.3     1  LIG1        0.1490
      9  C         15.2530   -4.5280   29.4820 C.2     1  LIG1        0.2630
     10  O         14.4560   -3.7390   28.9930 O.2     1  LIG1       -0.2650
     11  O         15.9530   -5.4800   28.7810 O.3     1  LIG1       -0.3120
     12  C         16.4870   -5.0740   27.5380 C.3     1  LIG1        0.2810
     13  C         16.8720   -6.2930   26.7260 C.2     1  LIG1        0.2430
     14  O         17.5890   -7.1520   27.2480 O.2     1  LIG1       -0.2710
     15  N         16.3800   -6.3790   25.4230 N.am    1  LIG1       -0.3590
     16  C         15.5180   -5.3920   24.7770 C.3     1  LIG1        0.1520
     17  C         16.7160   -7.5370   24.6060 C.3     1  LIG1        0.1520
     18  C         11.9540   -9.3880   32.9850 C.2     1  LIG1        0.2980
     19  O         11.1390   -9.1790   32.0990 O.2     1  LIG1       -0.2590
     20  C         12.4260  -10.7480   33.3500 C.ar    1  LIG1        0.0400
     21  C         13.6750  -10.9150   33.9460 C.ar    1  LIG1        0.0200
     22  C         14.1180  -12.1930   34.2900 C.ar    1  LIG1        0.0330
     23  C         13.3120  -13.3020   34.0380 C.ar    1  LIG1        0.0750
     24  C         12.0610  -13.1350   33.4420 C.ar    1  LIG1        0.0330
     25  C         11.6180  -11.8570   33.0980 C.ar    1  LIG1        0.0200
     26  N         13.7560  -14.5830   34.3820 N.pl3   1  LIG1       -0.0660
     27  C         14.4930  -15.2500   33.5270 C.cat   1  LIG1        0.6920
     28  N         14.9040  -14.8360   32.2780 N.pl3   1  LIG1       -0.2330
     29  N         14.9500  -16.5120   33.8270 N.pl3   1  LIG1       -0.2330
     30  H         14.6420  -13.9480   31.9430 H       1  LIG1        0.1740
     31  H         15.4590  -15.4290   31.7210 H       1  LIG1        0.1740
     32  H         14.7250  -16.9230   34.6920 H       1  LIG1        0.1740
     33  H         15.5030  -17.0020   33.1770 H       1  LIG1        0.1740
@<TRIPOS>BOND
     1    17    15    1
     2    16    15    1
     3    15    13   am
     4    13    14    2
     5    13    12    1
     6    12    11    1
     7    11     9    1
     8    10     9    2
     9     9     8    1
    10     8     5    1
    11     5     6   ar
    12     5     4   ar
    13    31    28    1
    14    30    28    1
    15     6     7   ar
    16    19    18    2
    17     4     3   ar
    18    28    27    1
    19     7     2   ar
    20     3     2   ar
    21    18    20    1
    22    18     1    1
    23    25    20   ar
    24    25    24   ar
    25     2     1    1
    26    33    29    1
    27    20    21   ar
    28    24    23   ar
    29    27    29    1
    30    27    26    2
    31    29    32    1
    32    21    22   ar
    33    23    22   ar
    34    23    26    1
@<TRIPOS>MOLECULE
./../dock_file/temp/7f3995a203679a5c76c2dcf4ca9047ea/Camostat_Ligand_CID_2536:hmTMPRSS11_F:20230418111003/Camostat_Ligand_CID_2536:hmTMPRSS11_F_out_4.pdbqt
 33 34 0 0 0
SMALL
GASTEIGER

@<TRIPOS>ATOM
      1  O         10.8020   -5.5300   34.2680 O.3     1  LIG1       -0.2750
      2  C         11.8830   -5.4600   33.4450 C.ar    1  LIG1        0.0790
      3  C         11.7320   -5.6730   32.0740 C.ar    1  LIG1        0.0380
      4  C         12.8400   -5.6010   31.2310 C.ar    1  LIG1        0.0100
      5  C         14.1000   -5.3150   31.7570 C.ar    1  LIG1       -0.0490
      6  C         14.2510   -5.1020   33.1270 C.ar    1  LIG1        0.0100
      7  C         13.1430   -5.1740   33.9710 C.ar    1  LIG1        0.0380
      8  C         15.2970   -5.2370   30.8450 C.3     1  LIG1        0.1490
      9  C         14.9730   -4.6400   29.4960 C.2     1  LIG1        0.2630
     10  O         14.4480   -3.5510   29.3110 O.2     1  LIG1       -0.2650
     11  O         15.3600   -5.5090   28.5040 O.3     1  LIG1       -0.3120
     12  C         16.6180   -5.2610   27.9120 C.3     1  LIG1        0.2810
     13  C         16.9340   -6.3520   26.9110 C.2     1  LIG1        0.2430
     14  O         17.6820   -7.2720   27.2530 O.2     1  LIG1       -0.2710
     15  N         16.3460   -6.2570   25.6490 N.am    1  LIG1       -0.3590
     16  C         15.4440   -5.1930   25.2140 C.3     1  LIG1        0.1520
     17  C         16.6130   -7.2880   24.6550 C.3     1  LIG1        0.1520
     18  C         10.1490   -6.7650   34.2560 C.2     1  LIG1        0.2980
     19  O          8.9410   -6.9330   34.3210 O.2     1  LIG1       -0.2590
     20  C         11.1210   -7.8840   34.1670 C.ar    1  LIG1        0.0400
     21  C         11.1510   -8.6940   33.0320 C.ar    1  LIG1        0.0200
     22  C         12.0650   -9.7440   32.9490 C.ar    1  LIG1        0.0330
     23  C         12.9480   -9.9860   34.0000 C.ar    1  LIG1        0.0750
     24  C         12.9190   -9.1760   35.1360 C.ar    1  LIG1        0.0330
     25  C         12.0050   -8.1250   35.2190 C.ar    1  LIG1        0.0200
     26  N         13.8640  -11.0400   33.9170 N.pl3   1  LIG1       -0.0660
     27  C         15.0620  -10.8020   33.4380 C.cat   1  LIG1        0.6920
     28  N         15.5560   -9.5970   32.9870 N.pl3   1  LIG1       -0.2330
     29  N         15.9920  -11.8100   33.3390 N.pl3   1  LIG1       -0.2330
     30  H         14.9880   -8.7950   33.0040 H       1  LIG1        0.1740
     31  H         16.4790   -9.5410   32.6470 H       1  LIG1        0.1740
     32  H         15.7620  -12.7220   33.6300 H       1  LIG1        0.1740
     33  H         16.8880  -11.6190   32.9780 H       1  LIG1        0.1740
@<TRIPOS>BOND
     1    17    15    1
     2    16    15    1
     3    15    13   am
     4    13    14    2
     5    13    12    1
     6    12    11    1
     7    11     9    1
     8    10     9    2
     9     9     8    1
    10     8     5    1
    11     4     5   ar
    12     4     3   ar
    13     5     6   ar
    14     3     2   ar
    15    31    28    1
    16    22    21   ar
    17    22    23   ar
    18    33    29    1
    19    28    30    1
    20    28    27    1
    21    21    20   ar
    22     6     7   ar
    23    29    27    1
    24    29    32    1
    25    27    26    2
    26     2     7   ar
    27     2     1    1
    28    26    23    1
    29    23    24   ar
    30    20    18    1
    31    20    25   ar
    32    18     1    1
    33    18    19    2
    34    24    25   ar
@<TRIPOS>MOLECULE
./../dock_file/temp/7f3995a203679a5c76c2dcf4ca9047ea/Camostat_Ligand_CID_2536:hmTMPRSS11_F:20230418111003/Camostat_Ligand_CID_2536:hmTMPRSS11_F_out_4.pdbqt
 33 34 0 0 0
SMALL
GASTEIGER

@<TRIPOS>ATOM
      1  O         14.4610   -4.1560   31.0240 O.3     1  LIG1       -0.2750
      2  C         13.9260   -5.2990   31.5330 C.ar    1  LIG1        0.0790
      3  C         12.5670   -5.5690   31.3640 C.ar    1  LIG1        0.0380
      4  C         12.0190   -6.7400   31.8850 C.ar    1  LIG1        0.0100
      5  C         12.8290   -7.6430   32.5750 C.ar    1  LIG1       -0.0490
      6  C         14.1870   -7.3730   32.7430 C.ar    1  LIG1        0.0100
      7  C         14.7360   -6.2010   32.2220 C.ar    1  LIG1        0.0380
      8  C         12.2370   -8.9080   33.1380 C.3     1  LIG1        0.1490
      9  C         12.2530   -8.9450   34.6490 C.2     1  LIG1        0.2630
     10  O         12.9570   -9.6750   35.3320 O.2     1  LIG1       -0.2650
     11  O         11.3540   -8.0280   35.1400 O.3     1  LIG1       -0.3120
     12  C         11.7820   -7.2660   36.2480 C.3     1  LIG1        0.2810
     13  C         12.5110   -6.0300   35.7650 C.2     1  LIG1        0.2430
     14  O         13.7360   -5.9710   35.9050 O.2     1  LIG1       -0.2710
     15  N         11.7480   -5.0220   35.1740 N.am    1  LIG1       -0.3590
     16  C         10.3000   -5.0620   34.9770 C.3     1  LIG1        0.1520
     17  C         12.4060   -3.8180   34.6850 C.3     1  LIG1        0.1520
     18  C         15.8430   -4.2080   30.8230 C.2     1  LIG1        0.2980
     19  O         16.6900   -3.7490   31.5740 O.2     1  LIG1       -0.2590
     20  C         16.1730   -4.8910   29.5460 C.ar    1  LIG1        0.0400
     21  C         16.0090   -4.2210   28.3350 C.ar    1  LIG1        0.0200
     22  C         16.3200   -4.8630   27.1350 C.ar    1  LIG1        0.0330
     23  C         16.7930   -6.1750   27.1480 C.ar    1  LIG1        0.0750
     24  C         16.9560   -6.8460   28.3600 C.ar    1  LIG1        0.0330
     25  C         16.6460   -6.2040   29.5590 C.ar    1  LIG1        0.0200
     26  N         17.1040   -6.8180   25.9460 N.pl3   1  LIG1       -0.0660
     27  C         16.2520   -6.7490   24.9510 C.cat   1  LIG1        0.6920
     28  N         15.0370   -6.0980   24.9360 N.pl3   1  LIG1       -0.2330
     29  N         16.5200   -7.3680   23.7520 N.pl3   1  LIG1       -0.2330
     30  H         14.7280   -5.6160   25.7350 H       1  LIG1        0.1740
     31  H         14.4790   -6.1170   24.1240 H       1  LIG1        0.1740
     32  H         17.3590   -7.8680   23.6330 H       1  LIG1        0.1740
     33  H         15.8720   -7.3090   23.0130 H       1  LIG1        0.1740
@<TRIPOS>BOND
     1    33    29    1
     2    32    29    1
     3    29    27    1
     4    31    28    1
     5    28    27    1
     6    28    30    1
     7    27    26    2
     8    26    23    1
     9    22    23   ar
    10    22    21   ar
    11    23    24   ar
    12    21    20   ar
    13    24    25   ar
    14    20    25   ar
    15    20    18    1
    16    18     1    1
    17    18    19    2
    18     1     2    1
    19     3     2   ar
    20     3     4   ar
    21     2     7   ar
    22     4     5   ar
    23     7     6   ar
    24     5     6   ar
    25     5     8    1
    26     8     9    1
    27     9    11    1
    28     9    10    2
    29    17    15    1
    30    16    15    1
    31    11    12    1
    32    15    13   am
    33    13    14    2
    34    13    12    1
@<TRIPOS>MOLECULE
./../dock_file/temp/7f3995a203679a5c76c2dcf4ca9047ea/Camostat_Ligand_CID_2536:hmTMPRSS11_F:20230418111003/Camostat_Ligand_CID_2536:hmTMPRSS11_F_out_4.pdbqt
 33 34 0 0 0
SMALL
GASTEIGER

@<TRIPOS>ATOM
      1  O         14.2290   -4.1980   31.0260 O.3     1  LIG1       -0.2750
      2  C         13.7280   -5.2470   31.7330 C.ar    1  LIG1        0.0790
      3  C         12.4640   -5.7540   31.4290 C.ar    1  LIG1        0.0380
      4  C         11.9510   -6.8290   32.1530 C.ar    1  LIG1        0.0100
      5  C         12.7020   -7.4000   33.1810 C.ar    1  LIG1       -0.0490
      6  C         13.9650   -6.8930   33.4860 C.ar    1  LIG1        0.0100
      7  C         14.4790   -5.8170   32.7610 C.ar    1  LIG1        0.0380
      8  C         12.1480   -8.5620   33.9640 C.3     1  LIG1        0.1490
      9  C         12.0460   -9.8280   33.1470 C.2     1  LIG1        0.2630
     10  O         11.0100  -10.3060   32.7070 O.2     1  LIG1       -0.2650
     11  O         13.3000  -10.3630   32.9710 O.3     1  LIG1       -0.3120
     12  C         13.9220  -10.8890   34.1240 C.3     1  LIG1        0.2810
     13  C         13.7060  -12.3870   34.1800 C.2     1  LIG1        0.2430
     14  O         14.2430  -13.0960   33.3250 O.2     1  LIG1       -0.2710
     15  N         12.9100  -12.8830   35.2130 N.am    1  LIG1       -0.3590
     16  C         12.2710  -12.0780   36.2520 C.3     1  LIG1        0.1520
     17  C         12.6810  -14.3190   35.3140 C.3     1  LIG1        0.1520
     18  C         15.6220   -4.1890   30.9210 C.2     1  LIG1        0.2980
     19  O         16.3920   -3.6520   31.7030 O.2     1  LIG1       -0.2590
     20  C         16.0720   -4.9130   29.7050 C.ar    1  LIG1        0.0400
     21  C         16.1340   -4.2480   28.4810 C.ar    1  LIG1        0.0200
     22  C         16.5580   -4.9280   27.3390 C.ar    1  LIG1        0.0330
     23  C         16.9180   -6.2730   27.4210 C.ar    1  LIG1        0.0750
     24  C         16.8560   -6.9380   28.6460 C.ar    1  LIG1        0.0330
     25  C         16.4330   -6.2580   29.7880 C.ar    1  LIG1        0.0200
     26  N         17.3430   -6.9550   26.2760 N.pl3   1  LIG1       -0.0660
     27  C         16.6060   -6.8950   25.1930 C.cat   1  LIG1        0.6920
     28  N         15.4160   -6.2180   25.0290 N.pl3   1  LIG1       -0.2330
     29  N         16.9880   -7.5510   24.0460 N.pl3   1  LIG1       -0.2330
     30  H         15.0330   -5.7080   25.7780 H       1  LIG1        0.1740
     31  H         14.9490   -6.2470   24.1620 H       1  LIG1        0.1740
     32  H         17.8220   -8.0720   24.0320 H       1  LIG1        0.1740
     33  H         16.4260   -7.4980   23.2390 H       1  LIG1        0.1740
@<TRIPOS>BOND
     1    33    29    1
     2    32    29    1
     3    29    27    1
     4    31    28    1
     5    28    27    1
     6    28    30    1
     7    27    26    2
     8    26    23    1
     9    22    23   ar
    10    22    21   ar
    11    23    24   ar
    12    21    20   ar
    13    24    25   ar
    14    20    25   ar
    15    20    18    1
    16    18     1    1
    17    18    19    2
    18     1     2    1
    19     3     2   ar
    20     3     4   ar
    21     2     7   ar
    22     4     5   ar
    23    10     9    2
    24     7     6   ar
    25    11     9    1
    26    11    12    1
    27     9     8    1
    28     5     6   ar
    29     5     8    1
    30    14    13    2
    31    12    13    1
    32    13    15   am
    33    15    17    1
    34    15    16    1
@<TRIPOS>MOLECULE
./../dock_file/temp/7f3995a203679a5c76c2dcf4ca9047ea/Camostat_Ligand_CID_2536:hmTMPRSS11_F:20230418111003/Camostat_Ligand_CID_2536:hmTMPRSS11_F_out_4.pdbqt
 33 34 0 0 0
SMALL
GASTEIGER

@<TRIPOS>ATOM
      1  O         14.1580   -9.4770   33.5540 O.3     1  LIG1       -0.2750
      2  C         14.6410   -8.4160   32.8520 C.ar    1  LIG1        0.0790
      3  C         14.5920   -7.1350   33.4020 C.ar    1  LIG1        0.0380
      4  C         15.0870   -6.0480   32.6820 C.ar    1  LIG1        0.0100
      5  C         15.6330   -6.2420   31.4130 C.ar    1  LIG1       -0.0490
      6  C         15.6820   -7.5230   30.8630 C.ar    1  LIG1        0.0100
      7  C         15.1870   -8.6100   31.5830 C.ar    1  LIG1        0.0380
      8  C         16.1680   -5.0670   30.6350 C.3     1  LIG1        0.1490
      9  C         15.1050   -4.3640   29.8240 C.2     1  LIG1        0.2630
     10  O         13.9060   -4.3790   30.0630 O.2     1  LIG1       -0.2650
     11  O         15.6930   -3.7010   28.7730 O.3     1  LIG1       -0.3120
     12  C         16.4670   -4.4890   27.8920 C.3     1  LIG1        0.2810
     13  C         15.6860   -4.7450   26.6200 C.2     1  LIG1        0.2430
     14  O         14.7330   -4.0100   26.3500 O.2     1  LIG1       -0.2710
     15  N         16.1030   -5.8050   25.8130 N.am    1  LIG1       -0.3590
     16  C         17.2340   -6.6870   26.0910 C.3     1  LIG1        0.1520
     17  C         15.3880   -6.0850   24.5740 C.3     1  LIG1        0.1520
     18  C         12.8420   -9.8230   33.2400 C.2     1  LIG1        0.2980
     19  O         12.1090   -9.2160   32.4730 O.2     1  LIG1       -0.2590
     20  C         12.4170  -11.0400   33.9780 C.ar    1  LIG1        0.0400
     21  C         12.7160  -11.1730   35.3330 C.ar    1  LIG1        0.0200
     22  C         12.3160  -12.3160   36.0260 C.ar    1  LIG1        0.0330
     23  C         11.6180  -13.3250   35.3640 C.ar    1  LIG1        0.0750
     24  C         11.3180  -13.1920   34.0080 C.ar    1  LIG1        0.0330
     25  C         11.7180  -12.0490   33.3150 C.ar    1  LIG1        0.0200
     26  N         11.2170  -14.4710   36.0590 N.pl3   1  LIG1       -0.0660
     27  C         10.0380  -14.4840   36.6330 C.cat   1  LIG1        0.6920
     28  N          9.1020  -13.4730   36.6400 N.pl3   1  LIG1       -0.2330
     29  N          9.6070  -15.5910   37.3260 N.pl3   1  LIG1       -0.2330
     30  H          9.2900  -12.6250   36.1790 H       1  LIG1        0.1740
     31  H          8.2450  -13.5990   37.1090 H       1  LIG1        0.1740
     32  H         10.1840  -16.3850   37.3940 H       1  LIG1        0.1740
     33  H          8.7190  -15.5890   37.7520 H       1  LIG1        0.1740
@<TRIPOS>BOND
     1    17    15    1
     2    15    16    1
     3    15    13   am
     4    14    13    2
     5    13    12    1
     6    12    11    1
     7    11     9    1
     8     9    10    2
     9     9     8    1
    10     8     5    1
    11     6     5   ar
    12     6     7   ar
    13     5     4   ar
    14     7     2   ar
    15    19    18    2
    16     4     3   ar
    17     2     3   ar
    18     2     1    1
    19    18     1    1
    20    18    20    1
    21    25    20   ar
    22    25    24   ar
    23    20    21   ar
    24    24    23   ar
    25    21    22   ar
    26    23    22   ar
    27    23    26    1
    28    26    27    2
    29    30    28    1
    30    27    28    1
    31    27    29    1
    32    28    31    1
    33    29    32    1
    34    29    33    1
@<TRIPOS>MOLECULE
./../dock_file/temp/7f3995a203679a5c76c2dcf4ca9047ea/Camostat_Ligand_CID_2536:hmTMPRSS11_F:20230418111003/Camostat_Ligand_CID_2536:hmTMPRSS11_F_out_4.pdbqt
 33 34 0 0 0
SMALL
GASTEIGER

@<TRIPOS>ATOM
      1  O         13.7940   -4.4890   30.6420 O.3     1  LIG1       -0.2750
      2  C         13.3220   -5.4280   31.5080 C.ar    1  LIG1        0.0790
      3  C         11.9670   -5.7600   31.5060 C.ar    1  LIG1        0.0380
      4  C         11.4830   -6.7210   32.3920 C.ar    1  LIG1        0.0100
      5  C         12.3540   -7.3520   33.2810 C.ar    1  LIG1       -0.0490
      6  C         13.7090   -7.0200   33.2820 C.ar    1  LIG1        0.0100
      7  C         14.1930   -6.0580   32.3950 C.ar    1  LIG1        0.0380
      8  C         11.8320   -8.3910   34.2380 C.3     1  LIG1        0.1490
      9  C         12.6430   -9.6660   34.2250 C.2     1  LIG1        0.2630
     10  O         12.6780  -10.4740   33.3080 O.2     1  LIG1       -0.2650
     11  O         13.3400   -9.7780   35.4050 O.3     1  LIG1       -0.3120
     12  C         12.6710   -9.3430   36.5700 C.3     1  LIG1        0.2810
     13  C         13.6300   -8.5660   37.4480 C.2     1  LIG1        0.2430
     14  O         14.8170   -8.5000   37.1170 O.2     1  LIG1       -0.2710
     15  N         13.1060   -7.9570   38.5890 N.am    1  LIG1       -0.3590
     16  C         11.7060   -8.0000   39.0050 C.3     1  LIG1        0.1520
     17  C         13.9880   -7.1910   39.4600 C.3     1  LIG1        0.1520
     18  C         15.1860   -4.3670   30.6300 C.2     1  LIG1        0.2980
     19  O         15.8550   -3.7600   31.4520 O.2     1  LIG1       -0.2590
     20  C         15.7750   -5.0680   29.4610 C.ar    1  LIG1        0.0400
     21  C         16.2840   -6.3580   29.6050 C.ar    1  LIG1        0.0200
     22  C         16.8360   -7.0160   28.5060 C.ar    1  LIG1        0.0330
     23  C         16.8800   -6.3840   27.2630 C.ar    1  LIG1        0.0750
     24  C         16.3710   -5.0930   27.1190 C.ar    1  LIG1        0.0330
     25  C         15.8180   -4.4350   28.2180 C.ar    1  LIG1        0.0200
     26  N         17.4340   -7.0440   26.1610 N.pl3   1  LIG1       -0.0660
     27  C         16.7500   -7.0960   25.0440 C.cat   1  LIG1        0.6920
     28  N         15.5030   -6.5610   24.8030 N.pl3   1  LIG1       -0.2330
     29  N         17.2600   -7.7350   23.9380 N.pl3   1  LIG1       -0.2330
     30  H         15.0290   -6.0780   25.5170 H       1  LIG1        0.1740
     31  H         15.0860   -6.6650   23.9170 H       1  LIG1        0.1740
     32  H         18.1460   -8.1590   23.9790 H       1  LIG1        0.1740
     33  H         16.7360   -7.7660   23.1040 H       1  LIG1        0.1740
@<TRIPOS>BOND
     1    33    29    1
     2    31    28    1
     3    29    32    1
     4    29    27    1
     5    28    27    1
     6    28    30    1
     7    27    26    2
     8    26    23    1
     9    24    23   ar
    10    24    25   ar
    11    23    22   ar
    12    25    20   ar
    13    22    21   ar
    14    20    21   ar
    15    20    18    1
    16    18     1    1
    17    18    19    2
    18     1     2    1
    19     3     2   ar
    20     3     4   ar
    21     2     7   ar
    22     4     5   ar
    23     7     6   ar
    24     5     6   ar
    25     5     8    1
    26    10     9    2
    27     9     8    1
    28     9    11    1
    29    11    12    1
    30    12    13    1
    31    14    13    2
    32    13    15   am
    33    15    16    1
    34    15    17    1
