@<TRIPOS>MOLECULE
./../dock_file/temp/cc5835d65acf9ed32aae84e485348313/Camostat_Ligand_CID_2536:hmTMPRSS2:20230411234231/Camostat_Ligand_CID_2536:hmTMPRSS2_out_4.pdbqt
 33 34 0 0 0
SMALL
GASTEIGER

@<TRIPOS>ATOM
      1  O          8.7660   14.6410   22.9900 O.3     1  LIG1       -0.2750
      2  C          8.0530   14.2890   24.0940 C.ar    1  LIG1        0.0790
      3  C          8.1680   15.0350   25.2680 C.ar    1  LIG1        0.0380
      4  C          7.4370   14.6740   26.3980 C.ar    1  LIG1        0.0100
      5  C          6.5890   13.5680   26.3570 C.ar    1  LIG1       -0.0490
      6  C          6.4730   12.8220   25.1840 C.ar    1  LIG1        0.0100
      7  C          7.2040   13.1830   24.0530 C.ar    1  LIG1        0.0380
      8  C          5.7980   13.1780   27.5790 C.3     1  LIG1        0.1490
      9  C          6.2620   11.8760   28.1900 C.2     1  LIG1        0.2630
     10  O          5.6930   10.7990   28.0790 O.2     1  LIG1       -0.2650
     11  O          7.4260   12.0860   28.8910 O.3     1  LIG1       -0.3120
     12  C          8.4810   11.1840   28.6340 C.3     1  LIG1        0.2810
     13  C          9.4310   11.7860   27.6200 C.2     1  LIG1        0.2430
     14  O         10.0980   12.7720   27.9450 O.2     1  LIG1       -0.2710
     15  N          9.5040   11.1760   26.3670 N.am    1  LIG1       -0.3590
     16  C          8.7430   10.0000   25.9520 C.3     1  LIG1        0.1520
     17  C         10.4100   11.7140   25.3610 C.3     1  LIG1        0.1520
     18  C          8.0390   15.3650   22.0430 C.2     1  LIG1        0.2980
     19  O          7.0670   16.0670   22.2750 O.2     1  LIG1       -0.2590
     20  C          8.5890   15.1660   20.6780 C.ar    1  LIG1        0.0400
     21  C          8.1030   15.9220   19.6130 C.ar    1  LIG1        0.0200
     22  C          8.6210   15.7350   18.3310 C.ar    1  LIG1        0.0330
     23  C          9.6240   14.7910   18.1140 C.ar    1  LIG1        0.0750
     24  C         10.1110   14.0340   19.1800 C.ar    1  LIG1        0.0330
     25  C          9.5930   14.2210   20.4620 C.ar    1  LIG1        0.0200
     26  N         10.1430   14.6040   16.8290 N.pl3   1  LIG1       -0.0660
     27  C          9.4810   13.8540   15.9810 C.cat   1  LIG1        0.6920
     28  N          8.2880   13.1980   16.2010 N.pl3   1  LIG1       -0.2330
     29  N          9.9560   13.6450   14.7080 N.pl3   1  LIG1       -0.2330
     30  H          7.8430   13.2670   17.0760 H       1  LIG1        0.1740
     31  H          7.8840   12.6600   15.4830 H       1  LIG1        0.1740
     32  H         10.8020   14.0600   14.4240 H       1  LIG1        0.1740
     33  H          9.4490   13.0800   14.0810 H       1  LIG1        0.1740
@<TRIPOS>BOND
     1    33    29    1
     2    32    29    1
     3    29    27    1
     4    31    28    1
     5    27    28    1
     6    27    26    2
     7    28    30    1
     8    26    23    1
     9    23    22   ar
    10    23    24   ar
    11    22    21   ar
    12    24    25   ar
    13    21    20   ar
    14    25    20   ar
    15    20    18    1
    16    18    19    2
    17    18     1    1
    18     1     2    1
    19     7     2   ar
    20     7     6   ar
    21     2     3   ar
    22     6     5   ar
    23     3     4   ar
    24    17    15    1
    25    16    15    1
    26     5     4   ar
    27     5     8    1
    28    15    13   am
    29     8     9    1
    30    13    14    2
    31    13    12    1
    32    10     9    2
    33     9    11    1
    34    12    11    1
@<TRIPOS>MOLECULE
./../dock_file/temp/cc5835d65acf9ed32aae84e485348313/Camostat_Ligand_CID_2536:hmTMPRSS2:20230411234231/Camostat_Ligand_CID_2536:hmTMPRSS2_out_4.pdbqt
 33 34 0 0 0
SMALL
GASTEIGER

@<TRIPOS>ATOM
      1  O          9.4680   15.6240   19.3000 O.3     1  LIG1       -0.2750
      2  C          8.9750   15.1680   20.4830 C.ar    1  LIG1        0.0790
      3  C          7.8110   15.7250   21.0150 C.ar    1  LIG1        0.0380
      4  C          7.3060   15.2580   22.2270 C.ar    1  LIG1        0.0100
      5  C          7.9630   14.2330   22.9090 C.ar    1  LIG1       -0.0490
      6  C          9.1260   13.6770   22.3780 C.ar    1  LIG1        0.0100
      7  C          9.6320   14.1440   21.1650 C.ar    1  LIG1        0.0380
      8  C          7.4170   13.7280   24.2200 C.3     1  LIG1        0.1490
      9  C          8.3140   12.7060   24.8770 C.2     1  LIG1        0.2630
     10  O          9.3590   12.9530   25.4630 O.2     1  LIG1       -0.2650
     11  O          7.7750   11.4520   24.7190 O.3     1  LIG1       -0.3120
     12  C          7.7200   10.6450   25.8760 C.3     1  LIG1        0.2810
     13  C          6.6050   11.1280   26.7810 C.2     1  LIG1        0.2430
     14  O          5.4620   11.2080   26.3230 O.2     1  LIG1       -0.2710
     15  N          6.9400   11.4480   28.0970 N.am    1  LIG1       -0.3590
     16  C          8.2770   11.3510   28.6790 C.3     1  LIG1        0.1520
     17  C          5.9000   11.9090   29.0080 C.3     1  LIG1        0.1520
     18  C          8.8530   15.0760   18.1720 C.2     1  LIG1        0.2980
     19  O          7.7190   15.3210   17.7890 O.2     1  LIG1       -0.2590
     20  C          9.7560   14.1210   17.4800 C.ar    1  LIG1        0.0400
     21  C         11.0860   14.0040   17.8810 C.ar    1  LIG1        0.0200
     22  C         11.9340   13.1070   17.2310 C.ar    1  LIG1        0.0330
     23  C         11.4520   12.3280   16.1800 C.ar    1  LIG1        0.0750
     24  C         10.1210   12.4450   15.7770 C.ar    1  LIG1        0.0330
     25  C          9.2730   13.3420   16.4270 C.ar    1  LIG1        0.0200
     26  N         12.3020   11.4280   15.5280 N.pl3   1  LIG1       -0.0660
     27  C         12.2460   10.1580   15.8480 C.cat   1  LIG1        0.6920
     28  N         11.4230    9.5680   16.7830 N.pl3   1  LIG1       -0.2330
     29  N         13.0650    9.2410   15.2310 N.pl3   1  LIG1       -0.2330
     30  H         10.7880   10.1170   17.2960 H       1  LIG1        0.1740
     31  H         11.4720    8.5970   16.9390 H       1  LIG1        0.1740
     32  H         13.7010    9.5360   14.5410 H       1  LIG1        0.1740
     33  H         13.0130    8.2900   15.4800 H       1  LIG1        0.1740
@<TRIPOS>BOND
     1    32    29    1
     2    29    33    1
     3    29    27    1
     4    26    27    2
     5    26    23    1
     6    24    23   ar
     7    24    25   ar
     8    27    28    1
     9    23    22   ar
    10    25    20   ar
    11    28    31    1
    12    28    30    1
    13    22    21   ar
    14    20    21   ar
    15    20    18    1
    16    19    18    2
    17    18     1    1
    18     1     2    1
    19     2     3   ar
    20     2     7   ar
    21     3     4   ar
    22     7     6   ar
    23     4     5   ar
    24     6     5   ar
    25     5     8    1
    26     8     9    1
    27    11     9    1
    28    11    12    1
    29     9    10    2
    30    12    13    1
    31    14    13    2
    32    13    15   am
    33    15    16    1
    34    15    17    1
@<TRIPOS>MOLECULE
./../dock_file/temp/cc5835d65acf9ed32aae84e485348313/Camostat_Ligand_CID_2536:hmTMPRSS2:20230411234231/Camostat_Ligand_CID_2536:hmTMPRSS2_out_4.pdbqt
 33 34 0 0 0
SMALL
GASTEIGER

@<TRIPOS>ATOM
      1  O          9.9640   12.3710   22.6210 O.3     1  LIG1       -0.2750
      2  C          9.3400   13.0080   23.6490 C.ar    1  LIG1        0.0790
      3  C          8.0040   13.3920   23.5250 C.ar    1  LIG1        0.0380
      4  C          7.3650   14.0440   24.5790 C.ar    1  LIG1        0.0100
      5  C          8.0610   14.3120   25.7580 C.ar    1  LIG1       -0.0490
      6  C          9.3960   13.9280   25.8820 C.ar    1  LIG1        0.0100
      7  C         10.0360   13.2750   24.8280 C.ar    1  LIG1        0.0380
      8  C          7.3710   15.0160   26.8970 C.3     1  LIG1        0.1490
      9  C          7.0590   14.0980   28.0560 C.2     1  LIG1        0.2630
     10  O          7.7300   13.9880   29.0730 O.2     1  LIG1       -0.2650
     11  O          5.9020   13.4030   27.7930 O.3     1  LIG1       -0.3120
     12  C          5.9460   12.0100   28.0170 C.3     1  LIG1        0.2810
     13  C          6.4450   11.3100   26.7700 C.2     1  LIG1        0.2430
     14  O          5.7040   11.2520   25.7850 O.2     1  LIG1       -0.2710
     15  N          7.7320   10.7720   26.8060 N.am    1  LIG1       -0.3590
     16  C          8.6440   10.8340   27.9470 C.3     1  LIG1        0.1520
     17  C          8.2590   10.0970   25.6280 C.3     1  LIG1        0.1520
     18  C         10.4580   13.2250   21.6320 C.2     1  LIG1        0.2980
     19  O         10.2920   14.4340   21.5860 O.2     1  LIG1       -0.2590
     20  C         11.2190   12.4700   20.6040 C.ar    1  LIG1        0.0400
     21  C         11.7080   13.1270   19.4760 C.ar    1  LIG1        0.0200
     22  C         12.4230   12.4170   18.5110 C.ar    1  LIG1        0.0330
     23  C         12.6470   11.0510   18.6730 C.ar    1  LIG1        0.0750
     24  C         12.1570   10.3920   19.8010 C.ar    1  LIG1        0.0330
     25  C         11.4430   11.1020   20.7670 C.ar    1  LIG1        0.0200
     26  N         13.3640   10.3390   17.7050 N.pl3   1  LIG1       -0.0660
     27  C         12.7080    9.7690   16.7230 C.cat   1  LIG1        0.6920
     28  N         11.3460    9.7790   16.5120 N.pl3   1  LIG1       -0.2330
     29  N         13.3750    9.0600   15.7510 N.pl3   1  LIG1       -0.2330
     30  H         10.7540   10.2530   17.1390 H       1  LIG1        0.1740
     31  H         10.9650    9.3100   15.7330 H       1  LIG1        0.1740
     32  H         14.3540    8.9780   15.7870 H       1  LIG1        0.1740
     33  H         12.8710    8.6370   15.0180 H       1  LIG1        0.1740
@<TRIPOS>BOND
     1    33    29    1
     2    31    28    1
     3    29    32    1
     4    29    27    1
     5    28    27    1
     6    28    30    1
     7    27    26    2
     8    26    23    1
     9    22    23   ar
    10    22    21   ar
    11    23    24   ar
    12    21    20   ar
    13    24    25   ar
    14    20    25   ar
    15    20    18    1
    16    19    18    2
    17    18     1    1
    18     1     2    1
    19     3     2   ar
    20     3     4   ar
    21     2     7   ar
    22     4     5   ar
    23     7     6   ar
    24    17    15    1
    25     5     6   ar
    26     5     8    1
    27    14    13    2
    28    13    15   am
    29    13    12    1
    30    15    16    1
    31     8     9    1
    32    11    12    1
    33    11     9    1
    34     9    10    2
@<TRIPOS>MOLECULE
./../dock_file/temp/cc5835d65acf9ed32aae84e485348313/Camostat_Ligand_CID_2536:hmTMPRSS2:20230411234231/Camostat_Ligand_CID_2536:hmTMPRSS2_out_4.pdbqt
 33 34 0 0 0
SMALL
GASTEIGER

@<TRIPOS>ATOM
      1  O          9.9870   13.9070   23.1350 O.3     1  LIG1       -0.2750
      2  C          8.9340   13.6290   23.9510 C.ar    1  LIG1        0.0790
      3  C          8.3000   12.3890   23.8760 C.ar    1  LIG1        0.0380
      4  C          7.2220   12.1050   24.7120 C.ar    1  LIG1        0.0100
      5  C          6.7760   13.0610   25.6260 C.ar    1  LIG1       -0.0490
      6  C          7.4090   14.3020   25.7010 C.ar    1  LIG1        0.0100
      7  C          8.4890   14.5860   24.8640 C.ar    1  LIG1        0.0380
      8  C          5.6100   12.7540   26.5300 C.3     1  LIG1        0.1490
      9  C          6.0350   12.3540   27.9230 C.2     1  LIG1        0.2630
     10  O          5.9400   13.0540   28.9210 O.2     1  LIG1       -0.2650
     11  O          6.5440   11.0770   27.8990 O.3     1  LIG1       -0.3120
     12  C          7.7650   10.8790   28.5800 C.3     1  LIG1        0.2810
     13  C          8.8980   10.7910   27.5780 C.2     1  LIG1        0.2430
     14  O          8.9830    9.7870   26.8650 O.2     1  LIG1       -0.2710
     15  N          9.7840   11.8670   27.5140 N.am    1  LIG1       -0.3590
     16  C          9.7070   13.0770   28.3290 C.3     1  LIG1        0.1520
     17  C         10.8850   11.8320   26.5600 C.3     1  LIG1        0.1520
     18  C          9.6600   13.9780   21.7790 C.2     1  LIG1        0.2980
     19  O          8.7020   14.5720   21.3070 O.2     1  LIG1       -0.2590
     20  C         10.6290   13.2140   20.9530 C.ar    1  LIG1        0.0400
     21  C         10.8950   11.8780   21.2490 C.ar    1  LIG1        0.0200
     22  C         11.8060   11.1600   20.4730 C.ar    1  LIG1        0.0330
     23  C         12.4500   11.7780   19.4020 C.ar    1  LIG1        0.0750
     24  C         12.1840   13.1160   19.1060 C.ar    1  LIG1        0.0330
     25  C         11.2740   13.8340   19.8820 C.ar    1  LIG1        0.0200
     26  N         13.3630   11.0580   18.6240 N.pl3   1  LIG1       -0.0660
     27  C         12.9190   10.3700   17.6000 C.cat   1  LIG1        0.6920
     28  N         11.6130   10.2580   17.1730 N.pl3   1  LIG1       -0.2330
     29  N         13.7830    9.6490   16.8100 N.pl3   1  LIG1       -0.2330
     30  H         10.8960   10.7280   17.6550 H       1  LIG1        0.1740
     31  H         11.3990    9.7070   16.3850 H       1  LIG1        0.1740
     32  H         14.7460    9.6460   17.0100 H       1  LIG1        0.1740
     33  H         13.4370    9.1360   16.0440 H       1  LIG1        0.1740
@<TRIPOS>BOND
     1    33    29    1
     2    31    28    1
     3    29    32    1
     4    29    27    1
     5    28    27    1
     6    28    30    1
     7    27    26    2
     8    26    23    1
     9    24    23   ar
    10    24    25   ar
    11    23    22   ar
    12    25    20   ar
    13    22    21   ar
    14    20    21   ar
    15    20    18    1
    16    19    18    2
    17    18     1    1
    18     1     2    1
    19     3     2   ar
    20     3     4   ar
    21     2     7   ar
    22     4     5   ar
    23     7     6   ar
    24     5     6   ar
    25     5     8    1
    26     8     9    1
    27    17    15    1
    28    14    13    2
    29    15    13   am
    30    15    16    1
    31    13    12    1
    32    11     9    1
    33    11    12    1
    34     9    10    2
@<TRIPOS>MOLECULE
./../dock_file/temp/cc5835d65acf9ed32aae84e485348313/Camostat_Ligand_CID_2536:hmTMPRSS2:20230411234231/Camostat_Ligand_CID_2536:hmTMPRSS2_out_4.pdbqt
 33 34 0 0 0
SMALL
GASTEIGER

@<TRIPOS>ATOM
      1  O          9.6900   14.8910   22.8060 O.3     1  LIG1       -0.2750
      2  C         10.1600   13.8590   22.0530 C.ar    1  LIG1        0.0790
      3  C         10.0580   13.9060   20.6630 C.ar    1  LIG1        0.0380
      4  C         10.5390   12.8480   19.8920 C.ar    1  LIG1        0.0100
      5  C         11.1230   11.7420   20.5120 C.ar    1  LIG1       -0.0490
      6  C         11.2240   11.6950   21.9020 C.ar    1  LIG1        0.0100
      7  C         10.7430   12.7540   22.6730 C.ar    1  LIG1        0.0380
      8  C         11.6420   10.5990   19.6790 C.3     1  LIG1        0.1490
      9  C         12.9810   10.8940   19.0440 C.2     1  LIG1        0.2630
     10  O         13.9250   11.4370   19.6000 O.2     1  LIG1       -0.2650
     11  O         12.9770   10.4550   17.7410 O.3     1  LIG1       -0.3120
     12  C         11.7440   10.5390   17.0580 C.3     1  LIG1        0.2810
     13  C         11.7950   11.6690   16.0510 C.2     1  LIG1        0.2430
     14  O         12.8530   11.8840   15.4530 O.2     1  LIG1       -0.2710
     15  N         10.6260   12.4030   15.8500 N.am    1  LIG1       -0.3590
     16  C          9.3520   12.1700   16.5270 C.3     1  LIG1        0.1520
     17  C         10.6230   13.4950   14.8850 C.3     1  LIG1        0.1520
     18  C          8.2970   14.9790   22.8560 C.2     1  LIG1        0.2980
     19  O          7.5880   15.5400   22.0350 O.2     1  LIG1       -0.2590
     20  C          7.7620   14.3060   24.0670 C.ar    1  LIG1        0.0400
     21  C          7.9210   14.8950   25.3200 C.ar    1  LIG1        0.0200
     22  C          7.4170   14.2630   26.4570 C.ar    1  LIG1        0.0330
     23  C          6.7560   13.0400   26.3410 C.ar    1  LIG1        0.0750
     24  C          6.5970   12.4500   25.0870 C.ar    1  LIG1        0.0330
     25  C          7.1000   13.0820   23.9500 C.ar    1  LIG1        0.0200
     26  N          6.2510   12.4060   27.4810 N.pl3   1  LIG1       -0.0660
     27  C          6.9540   11.4480   28.0370 C.cat   1  LIG1        0.6920
     28  N          8.1770   10.9650   27.6260 N.pl3   1  LIG1       -0.2330
     29  N          6.4930   10.8000   29.1590 N.pl3   1  LIG1       -0.2330
     30  H          8.6160   11.3460   26.8320 H       1  LIG1        0.1740
     31  H          8.6110   10.2360   28.1280 H       1  LIG1        0.1740
     32  H          5.6280   11.0540   29.5530 H       1  LIG1        0.1740
     33  H          7.0300   10.0830   29.5670 H       1  LIG1        0.1740
@<TRIPOS>BOND
     1    17    15    1
     2    14    13    2
     3    15    13   am
     4    15    16    1
     5    13    12    1
     6    12    11    1
     7    11     9    1
     8     9    10    2
     9     9     8    1
    10     8     5    1
    11     4     5   ar
    12     4     3   ar
    13     5     6   ar
    14     3     2   ar
    15     6     7   ar
    16    19    18    2
    17     2     7   ar
    18     2     1    1
    19     1    18    1
    20    18    20    1
    21    25    20   ar
    22    25    24   ar
    23    20    21   ar
    24    24    23   ar
    25    21    22   ar
    26    23    22   ar
    27    23    26    1
    28    30    28    1
    29    26    27    2
    30    28    27    1
    31    28    31    1
    32    27    29    1
    33    29    32    1
    34    29    33    1
@<TRIPOS>MOLECULE
./../dock_file/temp/cc5835d65acf9ed32aae84e485348313/Camostat_Ligand_CID_2536:hmTMPRSS2:20230411234231/Camostat_Ligand_CID_2536:hmTMPRSS2_out_4.pdbqt
 33 34 0 0 0
SMALL
GASTEIGER

@<TRIPOS>ATOM
      1  O         11.6290   13.1180   21.6510 O.3     1  LIG1       -0.2750
      2  C         12.0580   12.4090   20.5720 C.ar    1  LIG1        0.0790
      3  C         13.1110   12.8900   19.7930 C.ar    1  LIG1        0.0380
      4  C         13.5500   12.1630   18.6880 C.ar    1  LIG1        0.0100
      5  C         12.9380   10.9530   18.3600 C.ar    1  LIG1       -0.0490
      6  C         11.8840   10.4720   19.1380 C.ar    1  LIG1        0.0100
      7  C         11.4450   11.2000   20.2440 C.ar    1  LIG1        0.0380
      8  C         13.4120   10.1680   17.1650 C.3     1  LIG1        0.1490
      9  C         13.2580   10.9220   15.8650 C.2     1  LIG1        0.2630
     10  O         14.1730   11.2420   15.1190 O.2     1  LIG1       -0.2650
     11  O         11.9290   11.1940   15.6470 O.3     1  LIG1       -0.3120
     12  C         11.5890   12.5540   15.4780 C.3     1  LIG1        0.2810
     13  C         10.3000   12.8520   16.2160 C.2     1  LIG1        0.2430
     14  O          9.7620   11.9470   16.8590 O.2     1  LIG1       -0.2710
     15  N          9.7970   14.1510   16.1310 N.am    1  LIG1       -0.3590
     16  C         10.4130   15.2510   15.3930 C.3     1  LIG1        0.1520
     17  C          8.5640   14.4880   16.8310 C.3     1  LIG1        0.1520
     18  C         10.4790   13.8770   21.4200 C.2     1  LIG1        0.2980
     19  O         10.3350   14.6980   20.5260 O.2     1  LIG1       -0.2590
     20  C          9.4270   13.5750   22.4240 C.ar    1  LIG1        0.0400
     21  C          8.2900   14.3780   22.5050 C.ar    1  LIG1        0.0200
     22  C          7.3020   14.0940   23.4470 C.ar    1  LIG1        0.0330
     23  C          7.4510   13.0080   24.3090 C.ar    1  LIG1        0.0750
     24  C          8.5890   12.2040   24.2290 C.ar    1  LIG1        0.0330
     25  C          9.5770   12.4880   23.2860 C.ar    1  LIG1        0.0200
     26  N          6.4600   12.7230   25.2550 N.pl3   1  LIG1       -0.0660
     27  C          6.4350   13.4080   26.3730 C.cat   1  LIG1        0.6920
     28  N          7.2960   14.4140   26.7540 N.pl3   1  LIG1       -0.2330
     29  N          5.4780   13.1590   27.3280 N.pl3   1  LIG1       -0.2330
     30  H          8.0280   14.6880   26.1580 H       1  LIG1        0.1740
     31  H          7.1770   14.8580   27.6260 H       1  LIG1        0.1740
     32  H          4.8000   12.4610   27.1760 H       1  LIG1        0.1740
     33  H          5.4690   13.6800   28.1630 H       1  LIG1        0.1740
@<TRIPOS>BOND
     1    10     9    2
     2    16    15    1
     3    12    11    1
     4    12    13    1
     5    11     9    1
     6     9     8    1
     7    15    13   am
     8    15    17    1
     9    13    14    2
    10     8     5    1
    11     5     4   ar
    12     5     6   ar
    13     4     3   ar
    14     6     7   ar
    15     3     2   ar
    16     7     2   ar
    17    19    18    2
    18     2     1    1
    19    18     1    1
    20    18    20    1
    21    20    21   ar
    22    20    25   ar
    23    21    22   ar
    24    25    24   ar
    25    22    23   ar
    26    24    23   ar
    27    23    26    1
    28    26    27    2
    29    30    28    1
    30    27    28    1
    31    27    29    1
    32    28    31    1
    33    32    29    1
    34    29    33    1
@<TRIPOS>MOLECULE
./../dock_file/temp/cc5835d65acf9ed32aae84e485348313/Camostat_Ligand_CID_2536:hmTMPRSS2:20230411234231/Camostat_Ligand_CID_2536:hmTMPRSS2_out_4.pdbqt
 33 34 0 0 0
SMALL
GASTEIGER

@<TRIPOS>ATOM
      1  O          9.9350   15.0280   20.6760 O.3     1  LIG1       -0.2750
      2  C         10.0090   14.1540   19.6360 C.ar    1  LIG1        0.0790
      3  C         10.4530   12.8490   19.8510 C.ar    1  LIG1        0.0380
      4  C         10.5290   11.9530   18.7850 C.ar    1  LIG1        0.0100
      5  C         10.1590   12.3610   17.5030 C.ar    1  LIG1       -0.0490
      6  C          9.7150   13.6660   17.2880 C.ar    1  LIG1        0.0100
      7  C          9.6390   14.5620   18.3550 C.ar    1  LIG1        0.0380
      8  C         10.2410   11.3940   16.3510 C.3     1  LIG1        0.1490
      9  C         11.6540   10.9530   16.0500 C.2     1  LIG1        0.2630
     10  O         12.1560    9.8940   16.4000 O.2     1  LIG1       -0.2650
     11  O         12.2940   11.9280   15.3210 O.3     1  LIG1       -0.3120
     12  C         13.5590   12.3360   15.7980 C.3     1  LIG1        0.2810
     13  C         13.4070   13.5880   16.6360 C.2     1  LIG1        0.2430
     14  O         12.9950   14.6180   16.0950 O.2     1  LIG1       -0.2710
     15  N         13.7390   13.4990   17.9890 N.am    1  LIG1       -0.3590
     16  C         14.2150   12.2960   18.6670 C.3     1  LIG1        0.1520
     17  C         13.6020   14.6760   18.8380 C.3     1  LIG1        0.1520
     18  C          8.6690   15.1190   21.2610 C.2     1  LIG1        0.2980
     19  O          7.7070   15.7050   20.7900 O.2     1  LIG1       -0.2590
     20  C          8.6320   14.4150   22.5680 C.ar    1  LIG1        0.0400
     21  C          7.4120   14.0120   23.1090 C.ar    1  LIG1        0.0200
     22  C          7.3780   13.3500   24.3360 C.ar    1  LIG1        0.0330
     23  C          8.5630   13.0930   25.0240 C.ar    1  LIG1        0.0750
     24  C          9.7850   13.4960   24.4840 C.ar    1  LIG1        0.0330
     25  C          9.8190   14.1580   23.2560 C.ar    1  LIG1        0.0200
     26  N          8.5280   12.4290   26.2550 N.pl3   1  LIG1       -0.0660
     27  C          8.5330   11.1180   26.2690 C.cat   1  LIG1        0.6920
     28  N          8.5690   10.2720   25.1810 N.pl3   1  LIG1       -0.2330
     29  N          8.5000   10.4280   27.4580 N.pl3   1  LIG1       -0.2330
     30  H          8.5950   10.6430   24.2700 H       1  LIG1        0.1740
     31  H          8.5680    9.2970   25.3170 H       1  LIG1        0.1740
     32  H          8.4730   10.9180   28.3110 H       1  LIG1        0.1740
     33  H          8.5040    9.4430   27.4550 H       1  LIG1        0.1740
@<TRIPOS>BOND
     1    11    12    1
     2    11     9    1
     3    12    13    1
     4     9     8    1
     5     9    10    2
     6    14    13    2
     7     8     5    1
     8    13    15   am
     9     6     5   ar
    10     6     7   ar
    11     5     4   ar
    12    15    16    1
    13    15    17    1
    14     7     2   ar
    15     4     3   ar
    16     2     3   ar
    17     2     1    1
    18     1    18    1
    19    19    18    2
    20    18    20    1
    21    20    21   ar
    22    20    25   ar
    23    21    22   ar
    24    25    24   ar
    25    30    28    1
    26    22    23   ar
    27    24    23   ar
    28    23    26    1
    29    28    31    1
    30    28    27    1
    31    26    27    2
    32    27    29    1
    33    33    29    1
    34    29    32    1
@<TRIPOS>MOLECULE
./../dock_file/temp/cc5835d65acf9ed32aae84e485348313/Camostat_Ligand_CID_2536:hmTMPRSS2:20230411234231/Camostat_Ligand_CID_2536:hmTMPRSS2_out_4.pdbqt
 33 34 0 0 0
SMALL
GASTEIGER

@<TRIPOS>ATOM
      1  O         11.6700   14.9420   13.9740 O.3     1  LIG1       -0.2750
      2  C         11.7010   13.8350   14.7650 C.ar    1  LIG1        0.0790
      3  C         10.5090   13.2370   15.1760 C.ar    1  LIG1        0.0380
      4  C         10.5420   12.1030   15.9860 C.ar    1  LIG1        0.0100
      5  C         11.7660   11.5650   16.3850 C.ar    1  LIG1       -0.0490
      6  C         12.9570   12.1630   15.9740 C.ar    1  LIG1        0.0100
      7  C         12.9250   13.2980   15.1640 C.ar    1  LIG1        0.0380
      8  C         11.8010   10.3390   17.2600 C.3     1  LIG1        0.1490
      9  C         12.3240   10.6220   18.6490 C.2     1  LIG1        0.2630
     10  O         13.4370   10.3250   19.0610 O.2     1  LIG1       -0.2650
     11  O         11.3560   11.2670   19.3820 O.3     1  LIG1       -0.3120
     12  C         11.7270   12.5010   19.9570 C.3     1  LIG1        0.2810
     13  C         11.0500   13.6340   19.2140 C.2     1  LIG1        0.2430
     14  O          9.8170   13.6480   19.1510 O.2     1  LIG1       -0.2710
     15  N         11.8690   14.6100   18.6460 N.am    1  LIG1       -0.3590
     16  C         13.3280   14.6360   18.7130 C.3     1  LIG1        0.1520
     17  C         11.2620   15.7250   17.9290 C.3     1  LIG1        0.1520
     18  C         12.4330   14.8380   12.8090 C.2     1  LIG1        0.2980
     19  O         13.6280   15.0760   12.7150 O.2     1  LIG1       -0.2590
     20  C         11.5980   14.4070   11.6590 C.ar    1  LIG1        0.0400
     21  C         12.1960   14.1130   10.4340 C.ar    1  LIG1        0.0200
     22  C         11.4120   13.7070    9.3540 C.ar    1  LIG1        0.0330
     23  C         10.0290   13.5970    9.4990 C.ar    1  LIG1        0.0750
     24  C          9.4300   13.8910   10.7240 C.ar    1  LIG1        0.0330
     25  C         10.2150   14.2960   11.8040 C.ar    1  LIG1        0.0200
     26  N          9.2430   13.1900    8.4160 N.pl3   1  LIG1       -0.0660
     27  C          8.7690   14.1010    7.5990 C.cat   1  LIG1        0.6920
     28  N          8.9520   15.4640    7.6730 N.pl3   1  LIG1       -0.2330
     29  N          7.9920   13.7430    6.5230 N.pl3   1  LIG1       -0.2330
     30  H          9.4900   15.8500    8.4010 H       1  LIG1        0.1740
     31  H          8.5430   16.0530    6.9980 H       1  LIG1        0.1740
     32  H          7.7860   12.7950    6.3580 H       1  LIG1        0.1740
     33  H          7.6420   14.4360    5.9170 H       1  LIG1        0.1740
@<TRIPOS>BOND
     1    33    29    1
     2    32    29    1
     3    29    27    1
     4    31    28    1
     5    27    28    1
     6    27    26    2
     7    28    30    1
     8    26    23    1
     9    22    23   ar
    10    22    21   ar
    11    23    24   ar
    12    21    20   ar
    13    24    25   ar
    14    20    25   ar
    15    20    18    1
    16    19    18    2
    17    18     1    1
    18     1     2    1
    19     2     7   ar
    20     2     3   ar
    21     7     6   ar
    22     3     4   ar
    23     6     5   ar
    24     4     5   ar
    25     5     8    1
    26     8     9    1
    27    17    15    1
    28    15    16    1
    29    15    13   am
    30     9    10    2
    31     9    11    1
    32    14    13    2
    33    13    12    1
    34    11    12    1
@<TRIPOS>MOLECULE
./../dock_file/temp/cc5835d65acf9ed32aae84e485348313/Camostat_Ligand_CID_2536:hmTMPRSS2:20230411234231/Camostat_Ligand_CID_2536:hmTMPRSS2_out_4.pdbqt
 33 34 0 0 0
SMALL
GASTEIGER

@<TRIPOS>ATOM
      1  O          9.6930   14.6230   21.5740 O.3     1  LIG1       -0.2750
      2  C          9.9360   13.8950   20.4500 C.ar    1  LIG1        0.0790
      3  C          9.6280   14.4230   19.1960 C.ar    1  LIG1        0.0380
      4  C          9.8760   13.6770   18.0450 C.ar    1  LIG1        0.0100
      5  C         10.4350   12.4030   18.1460 C.ar    1  LIG1       -0.0490
      6  C         10.7430   11.8750   19.4000 C.ar    1  LIG1        0.0100
      7  C         10.4940   12.6210   20.5520 C.ar    1  LIG1        0.0380
      8  C         10.7040   11.5970   16.9020 C.3     1  LIG1        0.1490
      9  C         11.8590   12.1330   16.0900 C.2     1  LIG1        0.2630
     10  O         11.7650   12.6980   15.0100 O.2     1  LIG1       -0.2650
     11  O         13.0390   11.8910   16.7540 O.3     1  LIG1       -0.3120
     12  C         14.0400   11.2170   16.0220 C.3     1  LIG1        0.2810
     13  C         15.3870   11.8550   16.2950 C.2     1  LIG1        0.2430
     14  O         16.0080   11.5200   17.3070 O.2     1  LIG1       -0.2710
     15  N         15.8540   12.7890   15.3690 N.am    1  LIG1       -0.3590
     16  C         15.1560   13.1990   14.1530 C.3     1  LIG1        0.1520
     17  C         17.1490   13.4230   15.5840 C.3     1  LIG1        0.1520
     18  C          8.3590   14.6150   21.9870 C.2     1  LIG1        0.2980
     19  O          7.4190   15.0940   21.3700 O.2     1  LIG1       -0.2590
     20  C          8.2110   13.9530   23.3070 C.ar    1  LIG1        0.0400
     21  C          8.4380   12.5830   23.4290 C.ar    1  LIG1        0.0200
     22  C          8.3000   11.9610   24.6700 C.ar    1  LIG1        0.0330
     23  C          7.9330   12.7080   25.7890 C.ar    1  LIG1        0.0750
     24  C          7.7050   14.0790   25.6670 C.ar    1  LIG1        0.0330
     25  C          7.8430   14.7010   24.4260 C.ar    1  LIG1        0.0200
     26  N          7.7940   12.0840   27.0330 N.pl3   1  LIG1       -0.0660
     27  C          6.6450   11.5320   27.3400 C.cat   1  LIG1        0.6920
     28  N          5.5070   11.4850   26.5640 N.pl3   1  LIG1       -0.2330
     29  N          6.4670   10.9080   28.5530 N.pl3   1  LIG1       -0.2330
     30  H          5.5040   11.8970   25.6700 H       1  LIG1        0.1740
     31  H          4.6980   11.0390   26.9040 H       1  LIG1        0.1740
     32  H          7.2070   10.8720   29.2010 H       1  LIG1        0.1740
     33  H          5.6000   10.4970   28.7720 H       1  LIG1        0.1740
@<TRIPOS>BOND
     1    16    15    1
     2    10     9    2
     3    15    17    1
     4    15    13   am
     5    12    13    1
     6    12    11    1
     7     9    11    1
     8     9     8    1
     9    13    14    2
    10     8     5    1
    11     4     5   ar
    12     4     3   ar
    13     5     6   ar
    14     3     2   ar
    15     6     7   ar
    16     2     7   ar
    17     2     1    1
    18    19    18    2
    19     1    18    1
    20    18    20    1
    21    20    21   ar
    22    20    25   ar
    23    21    22   ar
    24    25    24   ar
    25    22    23   ar
    26    24    23   ar
    27    30    28    1
    28    23    26    1
    29    28    31    1
    30    28    27    1
    31    26    27    2
    32    27    29    1
    33    29    33    1
    34    29    32    1
