@<TRIPOS>MOLECULE
./../dock_file/temp/cc5835d65acf9ed32aae84e485348313/Camostat_Ligand_CID_2536:hmTMPRSS2:20230411234231/Camostat_Ligand_CID_2536:hmTMPRSS2_out_2.pdbqt
 33 34 0 0 0
SMALL
GASTEIGER

@<TRIPOS>ATOM
      1  O          4.2630  -19.2230   18.3130 O.3     1  LIG1       -0.2750
      2  C          3.2550  -19.8710   18.9570 C.ar    1  LIG1        0.0790
      3  C          1.9270  -19.5440   18.6820 C.ar    1  LIG1        0.0380
      4  C          0.8940  -20.2080   19.3420 C.ar    1  LIG1        0.0100
      5  C          1.1880  -21.2010   20.2770 C.ar    1  LIG1       -0.0490
      6  C          2.5160  -21.5270   20.5530 C.ar    1  LIG1        0.0100
      7  C          3.5490  -20.8630   19.8920 C.ar    1  LIG1        0.0380
      8  C          0.0720  -21.9190   20.9910 C.3     1  LIG1        0.1490
      9  C         -0.1720  -23.3100   20.4540 C.2     1  LIG1        0.2630
     10  O          0.2210  -24.3470   20.9690 O.2     1  LIG1       -0.2650
     11  O         -0.9060  -23.2320   19.2940 O.3     1  LIG1       -0.3120
     12  C         -0.4220  -23.9790   18.1980 C.3     1  LIG1        0.2810
     13  C         -0.0120  -23.0400   17.0830 C.2     1  LIG1        0.2430
     14  O         -0.8920  -22.4400   16.4590 O.2     1  LIG1       -0.2710
     15  N          1.3530  -22.9000   16.8300 N.am    1  LIG1       -0.3590
     16  C          2.4230  -23.5800   17.5560 C.3     1  LIG1        0.1520
     17  C          1.7960  -22.0000   15.7720 C.3     1  LIG1        0.1520
     18  C          4.4740  -19.6490   16.9990 C.2     1  LIG1        0.2980
     19  O          3.8680  -19.2520   16.0150 O.2     1  LIG1       -0.2590
     20  C          5.5380  -20.6830   16.9360 C.ar    1  LIG1        0.0400
     21  C          5.5130  -21.6500   15.9320 C.ar    1  LIG1        0.0200
     22  C          6.5130  -22.6200   15.8730 C.ar    1  LIG1        0.0330
     23  C          7.5390  -22.6240   16.8180 C.ar    1  LIG1        0.0750
     24  C          7.5650  -21.6570   17.8220 C.ar    1  LIG1        0.0330
     25  C          6.5640  -20.6860   17.8820 C.ar    1  LIG1        0.0200
     26  N          8.5420  -23.5970   16.7580 N.pl3   1  LIG1       -0.0660
     27  C          8.3340  -24.7580   17.3330 C.cat   1  LIG1        0.6920
     28  N          7.2080  -25.1600   18.0180 N.pl3   1  LIG1       -0.2330
     29  N          9.2940  -25.7410   17.2970 N.pl3   1  LIG1       -0.2330
     30  H          6.4460  -24.5460   18.1160 H       1  LIG1        0.1740
     31  H          7.1670  -26.0630   18.4100 H       1  LIG1        0.1740
     32  H         10.1480  -25.5790   16.8350 H       1  LIG1        0.1740
     33  H          9.1260  -26.6080   17.7320 H       1  LIG1        0.1740
@<TRIPOS>BOND
     1    17    15    1
     2    22    21   ar
     3    22    23   ar
     4    21    20   ar
     5    19    18    2
     6    14    13    2
     7    26    23    1
     8    26    27    2
     9    23    24   ar
    10    15    13   am
    11    15    16    1
    12    32    29    1
    13    20    18    1
    14    20    25   ar
    15    18     1    1
    16    13    12    1
    17    29    27    1
    18    29    33    1
    19    27    28    1
    20    24    25   ar
    21    28    30    1
    22    28    31    1
    23    12    11    1
    24     1     2    1
    25     3     2   ar
    26     3     4   ar
    27     2     7   ar
    28    11     9    1
    29     4     5   ar
    30     7     6   ar
    31     5     6   ar
    32     5     8    1
    33     9    10    2
    34     9     8    1
@<TRIPOS>MOLECULE
./../dock_file/temp/cc5835d65acf9ed32aae84e485348313/Camostat_Ligand_CID_2536:hmTMPRSS2:20230411234231/Camostat_Ligand_CID_2536:hmTMPRSS2_out_2.pdbqt
 33 34 0 0 0
SMALL
GASTEIGER

@<TRIPOS>ATOM
      1  O          3.5950  -19.5260   15.8610 O.3     1  LIG1       -0.2750
      2  C          2.7210  -19.8030   16.8660 C.ar    1  LIG1        0.0790
      3  C          2.9010  -19.2320   18.1260 C.ar    1  LIG1        0.0380
      4  C          2.0050  -19.5170   19.1550 C.ar    1  LIG1        0.0100
      5  C          0.9270  -20.3730   18.9260 C.ar    1  LIG1       -0.0490
      6  C          0.7470  -20.9440   17.6660 C.ar    1  LIG1        0.0100
      7  C          1.6440  -20.6590   16.6360 C.ar    1  LIG1        0.0380
      8  C         -0.0410  -20.6810   20.0380 C.3     1  LIG1        0.1490
      9  C         -0.1640  -22.1600   20.3190 C.2     1  LIG1        0.2630
     10  O         -1.0030  -22.9060   19.8350 O.2     1  LIG1       -0.2650
     11  O          0.8160  -22.5420   21.2050 O.3     1  LIG1       -0.3120
     12  C          1.4580  -23.7700   20.9340 C.3     1  LIG1        0.2810
     13  C          2.3890  -23.6070   19.7500 C.2     1  LIG1        0.2430
     14  O          3.3090  -22.7890   19.8270 O.2     1  LIG1       -0.2710
     15  N          2.1530  -24.4090   18.6330 N.am    1  LIG1       -0.3590
     16  C          1.0840  -25.3980   18.5100 C.3     1  LIG1        0.1520
     17  C          3.0270  -24.2940   17.4720 C.3     1  LIG1        0.1520
     18  C          4.8900  -19.2270   16.2920 C.2     1  LIG1        0.2980
     19  O          5.4010  -18.1170   16.2970 O.2     1  LIG1       -0.2590
     20  C          5.6010  -20.4510   16.7400 C.ar    1  LIG1        0.0400
     21  C          5.4880  -21.6320   16.0070 C.ar    1  LIG1        0.0200
     22  C          6.1560  -22.7810   16.4280 C.ar    1  LIG1        0.0330
     23  C          6.9360  -22.7510   17.5830 C.ar    1  LIG1        0.0750
     24  C          7.0500  -21.5710   18.3180 C.ar    1  LIG1        0.0330
     25  C          6.3810  -20.4210   17.8960 C.ar    1  LIG1        0.0200
     26  N          7.6060  -23.9050   18.0050 N.pl3   1  LIG1       -0.0660
     27  C          7.1200  -24.5860   19.0150 C.cat   1  LIG1        0.6920
     28  N          5.9870  -24.3010   19.7460 N.pl3   1  LIG1       -0.2330
     29  N          7.7480  -25.7250   19.4610 N.pl3   1  LIG1       -0.2330
     30  H          5.4460  -23.5090   19.5270 H       1  LIG1        0.1740
     31  H          5.7190  -24.8900   20.4890 H       1  LIG1        0.1740
     32  H          8.5710  -26.0380   19.0210 H       1  LIG1        0.1740
     33  H          7.3730  -26.2280   20.2200 H       1  LIG1        0.1740
@<TRIPOS>BOND
     1     1    18    1
     2     1     2    1
     3    21    22   ar
     4    21    20   ar
     5    18    19    2
     6    18    20    1
     7    22    23   ar
     8     7     2   ar
     9     7     6   ar
    10    20    25   ar
    11     2     3   ar
    12    17    15    1
    13    23    26    1
    14    23    24   ar
    15     6     5   ar
    16    25    24   ar
    17    26    27    2
    18     3     4   ar
    19    16    15    1
    20    15    13   am
    21     5     4   ar
    22     5     8    1
    23    27    29    1
    24    27    28    1
    25    32    29    1
    26    29    33    1
    27    30    28    1
    28    28    31    1
    29    13    14    2
    30    13    12    1
    31    10     9    2
    32     8     9    1
    33     9    11    1
    34    12    11    1
@<TRIPOS>MOLECULE
./../dock_file/temp/cc5835d65acf9ed32aae84e485348313/Camostat_Ligand_CID_2536:hmTMPRSS2:20230411234231/Camostat_Ligand_CID_2536:hmTMPRSS2_out_2.pdbqt
 33 34 0 0 0
SMALL
GASTEIGER

@<TRIPOS>ATOM
      1  O          3.1560  -19.5400   16.1180 O.3     1  LIG1       -0.2750
      2  C          2.3350  -19.9880   17.1060 C.ar    1  LIG1        0.0790
      3  C          1.4210  -21.0090   16.8450 C.ar    1  LIG1        0.0380
      4  C          0.5790  -21.4680   17.8570 C.ar    1  LIG1        0.0100
      5  C          0.6520  -20.9070   19.1330 C.ar    1  LIG1       -0.0490
      6  C          1.5670  -19.8860   19.3940 C.ar    1  LIG1        0.0100
      7  C          2.4080  -19.4270   18.3800 C.ar    1  LIG1        0.0380
      8  C         -0.2570  -21.4020   20.2270 C.3     1  LIG1        0.1490
      9  C          0.0340  -22.8280   20.6350 C.2     1  LIG1        0.2630
     10  O          0.9740  -23.1880   21.3290 O.2     1  LIG1       -0.2650
     11  O         -0.9230  -23.6610   20.1050 O.3     1  LIG1       -0.3120
     12  C         -0.5020  -24.9700   19.7840 C.3     1  LIG1        0.2810
     13  C         -1.5980  -25.9560   20.1290 C.2     1  LIG1        0.2430
     14  O         -2.6890  -25.8540   19.5610 O.2     1  LIG1       -0.2710
     15  N         -1.3030  -26.9390   21.0740 N.am    1  LIG1       -0.3590
     16  C         -0.0210  -27.1010   21.7560 C.3     1  LIG1        0.1520
     17  C         -2.3230  -27.9160   21.4330 C.3     1  LIG1        0.1520
     18  C          4.4000  -19.0870   16.5650 C.2     1  LIG1        0.2980
     19  O          4.7030  -17.9210   16.7670 O.2     1  LIG1       -0.2590
     20  C          5.3440  -20.2180   16.7570 C.ar    1  LIG1        0.0400
     21  C          6.1390  -20.2750   17.9010 C.ar    1  LIG1        0.0200
     22  C          7.0260  -21.3370   18.0810 C.ar    1  LIG1        0.0330
     23  C          7.1170  -22.3410   17.1170 C.ar    1  LIG1        0.0750
     24  C          6.3220  -22.2840   15.9730 C.ar    1  LIG1        0.0330
     25  C          5.4350  -21.2220   15.7920 C.ar    1  LIG1        0.0200
     26  N          8.0060  -23.4060   17.2980 N.pl3   1  LIG1       -0.0660
     27  C          7.5960  -24.4720   17.9430 C.cat   1  LIG1        0.6920
     28  N          6.3490  -24.6880   18.4890 N.pl3   1  LIG1       -0.2330
     29  N          8.4380  -25.5400   18.1420 N.pl3   1  LIG1       -0.2330
     30  H          5.6520  -23.9970   18.4150 H       1  LIG1        0.1740
     31  H          6.1560  -25.5350   18.9550 H       1  LIG1        0.1740
     32  H          9.3600  -25.5110   17.7990 H       1  LIG1        0.1740
     33  H          8.1180  -26.3350   18.6270 H       1  LIG1        0.1740
@<TRIPOS>BOND
     1    25    24   ar
     2    25    20   ar
     3    24    23   ar
     4     1    18    1
     5     1     2    1
     6    18    20    1
     7    18    19    2
     8    20    21   ar
     9     3     2   ar
    10     3     4   ar
    11     2     7   ar
    12    23    26    1
    13    23    22   ar
    14    26    27    2
    15    32    29    1
    16     4     5   ar
    17    21    22   ar
    18    27    29    1
    19    27    28    1
    20    29    33    1
    21     7     6   ar
    22    30    28    1
    23    28    31    1
    24     5     6   ar
    25     5     8    1
    26    14    13    2
    27    12    11    1
    28    12    13    1
    29    11     9    1
    30    13    15   am
    31     8     9    1
    32     9    10    2
    33    15    17    1
    34    15    16    1
@<TRIPOS>MOLECULE
./../dock_file/temp/cc5835d65acf9ed32aae84e485348313/Camostat_Ligand_CID_2536:hmTMPRSS2:20230411234231/Camostat_Ligand_CID_2536:hmTMPRSS2_out_2.pdbqt
 33 34 0 0 0
SMALL
GASTEIGER

@<TRIPOS>ATOM
      1  O         -0.5920  -20.8700   19.1860 O.3     1  LIG1       -0.2750
      2  C          0.5210  -20.5000   18.4970 C.ar    1  LIG1        0.0790
      3  C          1.5670  -19.8520   19.1550 C.ar    1  LIG1        0.0380
      4  C          2.7070  -19.4720   18.4490 C.ar    1  LIG1        0.0100
      5  C          2.8040  -19.7420   17.0830 C.ar    1  LIG1       -0.0490
      6  C          1.7590  -20.3890   16.4250 C.ar    1  LIG1        0.0100
      7  C          0.6170  -20.7690   17.1320 C.ar    1  LIG1        0.0380
      8  C          4.0360  -19.3320   16.3200 C.3     1  LIG1        0.1490
      9  C          4.8320  -20.5100   15.8090 C.2     1  LIG1        0.2630
     10  O          4.7780  -20.9640   14.6750 O.2     1  LIG1       -0.2650
     11  O          5.6310  -20.9960   16.8180 O.3     1  LIG1       -0.3120
     12  C          5.5560  -22.3850   17.0590 C.3     1  LIG1        0.2810
     13  C          5.4930  -22.6410   18.5500 C.2     1  LIG1        0.2430
     14  O          6.5030  -22.4410   19.2300 O.2     1  LIG1       -0.2710
     15  N          4.2780  -23.0840   19.0760 N.am    1  LIG1       -0.3590
     16  C          3.0570  -23.3170   18.3070 C.3     1  LIG1        0.1520
     17  C          4.1660  -23.3350   20.5070 C.3     1  LIG1        0.1520
     18  C         -0.3360  -21.3840   20.4600 C.2     1  LIG1        0.2980
     19  O         -0.2880  -20.7340   21.4930 O.2     1  LIG1       -0.2590
     20  C         -0.1050  -22.8500   20.4090 C.ar    1  LIG1        0.0400
     21  C         -0.6070  -23.5980   19.3460 C.ar    1  LIG1        0.0200
     22  C         -0.3900  -24.9760   19.2980 C.ar    1  LIG1        0.0330
     23  C          0.3280  -25.6040   20.3150 C.ar    1  LIG1        0.0750
     24  C          0.8310  -24.8550   21.3800 C.ar    1  LIG1        0.0330
     25  C          0.6140  -23.4780   21.4270 C.ar    1  LIG1        0.0200
     26  N          0.5460  -26.9850   20.2670 N.pl3   1  LIG1       -0.0660
     27  C         -0.2940  -27.7810   20.8850 C.cat   1  LIG1        0.6920
     28  N         -1.4110  -27.4180   21.6060 N.pl3   1  LIG1       -0.2330
     29  N         -0.1160  -29.1440   20.8630 N.pl3   1  LIG1       -0.2330
     30  H         -1.6490  -26.4680   21.6990 H       1  LIG1        0.1740
     31  H         -1.9690  -28.1100   22.0300 H       1  LIG1        0.1740
     32  H          0.6480  -29.5330   20.3790 H       1  LIG1        0.1740
     33  H         -0.7540  -29.7310   21.3300 H       1  LIG1        0.1740
@<TRIPOS>BOND
     1    10     9    2
     2     9     8    1
     3     9    11    1
     4     8     5    1
     5     6     5   ar
     6     6     7   ar
     7    11    12    1
     8    12    13    1
     9     5     4   ar
    10     7     2   ar
    11    16    15    1
    12     4     3   ar
    13     2     3   ar
    14     2     1    1
    15    13    15   am
    16    13    14    2
    17    15    17    1
    18     1    18    1
    19    22    21   ar
    20    22    23   ar
    21    21    20   ar
    22    26    23    1
    23    26    27    2
    24    23    24   ar
    25    32    29    1
    26    20    18    1
    27    20    25   ar
    28    18    19    2
    29    29    27    1
    30    29    33    1
    31    27    28    1
    32    24    25   ar
    33    28    30    1
    34    28    31    1
@<TRIPOS>MOLECULE
./../dock_file/temp/cc5835d65acf9ed32aae84e485348313/Camostat_Ligand_CID_2536:hmTMPRSS2:20230411234231/Camostat_Ligand_CID_2536:hmTMPRSS2_out_2.pdbqt
 33 34 0 0 0
SMALL
GASTEIGER

@<TRIPOS>ATOM
      1  O          4.1810  -19.7420   15.9100 O.3     1  LIG1       -0.2750
      2  C          3.2660  -19.7500   16.9170 C.ar    1  LIG1        0.0790
      3  C          3.5770  -19.1700   18.1470 C.ar    1  LIG1        0.0380
      4  C          2.6390  -19.1780   19.1790 C.ar    1  LIG1        0.0100
      5  C          1.3890  -19.7650   18.9810 C.ar    1  LIG1       -0.0490
      6  C          1.0780  -20.3450   17.7500 C.ar    1  LIG1        0.0100
      7  C          2.0160  -20.3370   16.7180 C.ar    1  LIG1        0.0380
      8  C          0.3750  -19.7740   20.0950 C.3     1  LIG1        0.1490
      9  C         -0.9560  -20.3550   19.6770 C.2     1  LIG1        0.2630
     10  O         -1.8750  -19.7270   19.1700 O.2     1  LIG1       -0.2650
     11  O         -0.9750  -21.7020   19.9520 O.3     1  LIG1       -0.3120
     12  C         -0.1270  -22.1390   20.9930 C.3     1  LIG1        0.2810
     13  C          0.3500  -23.5470   20.7030 C.2     1  LIG1        0.2430
     14  O         -0.4890  -24.4370   20.5420 O.2     1  LIG1       -0.2710
     15  N          1.7280  -23.7550   20.6250 N.am    1  LIG1       -0.3590
     16  C          2.7510  -22.7250   20.7940 C.3     1  LIG1        0.1520
     17  C          2.2350  -25.0910   20.3400 C.3     1  LIG1        0.1520
     18  C          4.5260  -21.0100   15.4370 C.2     1  LIG1        0.2980
     19  O          4.3250  -21.4290   14.3080 O.2     1  LIG1       -0.2590
     20  C          5.1720  -21.8210   16.5010 C.ar    1  LIG1        0.0400
     21  C          4.5410  -22.9660   16.9850 C.ar    1  LIG1        0.0200
     22  C          5.1470  -23.7280   17.9840 C.ar    1  LIG1        0.0330
     23  C          6.3840  -23.3430   18.5000 C.ar    1  LIG1        0.0750
     24  C          7.0160  -22.1970   18.0170 C.ar    1  LIG1        0.0330
     25  C          6.4090  -21.4350   17.0180 C.ar    1  LIG1        0.0200
     26  N          6.9920  -24.1070   19.5030 N.pl3   1  LIG1       -0.0660
     27  C          7.7310  -25.1330   19.1570 C.cat   1  LIG1        0.6920
     28  N          7.9980  -25.5770   17.8790 N.pl3   1  LIG1       -0.2330
     29  N          8.3460  -25.9090   20.1110 N.pl3   1  LIG1       -0.2330
     30  H          7.6150  -25.1070   17.1050 H       1  LIG1        0.1740
     31  H          8.5710  -26.3660   17.7430 H       1  LIG1        0.1740
     32  H          8.2350  -25.6960   21.0650 H       1  LIG1        0.1740
     33  H          8.8990  -26.6770   19.8380 H       1  LIG1        0.1740
@<TRIPOS>BOND
     1    19    18    2
     2    18     1    1
     3    18    20    1
     4     1     2    1
     5    20    21   ar
     6    20    25   ar
     7     7     2   ar
     8     7     6   ar
     9     2     3   ar
    10    21    22   ar
    11    25    24   ar
    12    30    28    1
    13    31    28    1
    14     6     5   ar
    15    28    27    1
    16    22    23   ar
    17    24    23   ar
    18     3     4   ar
    19    23    26    1
    20     5     4   ar
    21     5     8    1
    22    27    26    2
    23    27    29    1
    24    10     9    2
    25     9    11    1
    26     9     8    1
    27    33    29    1
    28    11    12    1
    29    29    32    1
    30    17    15    1
    31    14    13    2
    32    15    13   am
    33    15    16    1
    34    13    12    1
@<TRIPOS>MOLECULE
./../dock_file/temp/cc5835d65acf9ed32aae84e485348313/Camostat_Ligand_CID_2536:hmTMPRSS2:20230411234231/Camostat_Ligand_CID_2536:hmTMPRSS2_out_2.pdbqt
 33 34 0 0 0
SMALL
GASTEIGER

@<TRIPOS>ATOM
      1  O          0.7550  -21.8940   21.1120 O.3     1  LIG1       -0.2750
      2  C          1.6480  -21.1850   20.3690 C.ar    1  LIG1        0.0790
      3  C          1.1980  -20.2130   19.4750 C.ar    1  LIG1        0.0380
      4  C          2.1140  -19.4880   18.7140 C.ar    1  LIG1        0.0100
      5  C          3.4820  -19.7330   18.8480 C.ar    1  LIG1       -0.0490
      6  C          3.9310  -20.7040   19.7420 C.ar    1  LIG1        0.0100
      7  C          3.0150  -21.4300   20.5030 C.ar    1  LIG1        0.0380
      8  C          4.4720  -18.9490   18.0260 C.3     1  LIG1        0.1490
      9  C          5.3490  -19.8270   17.1650 C.2     1  LIG1        0.2630
     10  O          6.3710  -20.3880   17.5360 O.2     1  LIG1       -0.2650
     11  O          4.8220  -19.9010   15.8980 O.3     1  LIG1       -0.3120
     12  C          4.5700  -21.1980   15.4010 C.3     1  LIG1        0.2810
     13  C          3.2170  -21.6760   15.8850 C.2     1  LIG1        0.2430
     14  O          2.2040  -21.1070   15.4700 O.2     1  LIG1       -0.2710
     15  N          3.1960  -22.7490   16.7770 N.am    1  LIG1       -0.3590
     16  C          4.3710  -23.4570   17.2790 C.3     1  LIG1        0.1520
     17  C          1.9170  -23.2500   17.2640 C.3     1  LIG1        0.1520
     18  C         -0.1050  -22.7000   20.3610 C.2     1  LIG1        0.2980
     19  O         -1.0190  -22.3040   19.6550 O.2     1  LIG1       -0.2590
     20  C          0.2200  -24.1380   20.5390 C.ar    1  LIG1        0.0400
     21  C          1.3080  -24.5160   21.3250 C.ar    1  LIG1        0.0200
     22  C          1.6130  -25.8670   21.4920 C.ar    1  LIG1        0.0330
     23  C          0.8300  -26.8400   20.8720 C.ar    1  LIG1        0.0750
     24  C         -0.2580  -26.4630   20.0850 C.ar    1  LIG1        0.0330
     25  C         -0.5630  -25.1120   19.9180 C.ar    1  LIG1        0.0200
     26  N          1.1360  -28.1950   21.0400 N.pl3   1  LIG1       -0.0660
     27  C          0.6500  -28.8310   22.0790 C.cat   1  LIG1        0.6920
     28  N         -0.1570  -28.3150   23.0700 N.pl3   1  LIG1       -0.2330
     29  N          0.9270  -30.1630   22.2800 N.pl3   1  LIG1       -0.2330
     30  H         -0.4270  -27.3700   23.0430 H       1  LIG1        0.1740
     31  H         -0.4610  -28.8940   23.8070 H       1  LIG1        0.1740
     32  H          1.4940  -30.6490   21.6400 H       1  LIG1        0.1740
     33  H          0.5560  -30.6290   23.0640 H       1  LIG1        0.1740
@<TRIPOS>BOND
     1    12    13    1
     2    12    11    1
     3    14    13    2
     4    13    15   am
     5    11     9    1
     6    15    17    1
     7    15    16    1
     8     9    10    2
     9     9     8    1
    10     8     5    1
    11     4     5   ar
    12     4     3   ar
    13     5     6   ar
    14     3     2   ar
    15    19    18    2
    16     6     7   ar
    17    25    24   ar
    18    25    20   ar
    19    24    23   ar
    20    18    20    1
    21    18     1    1
    22     2     7   ar
    23     2     1    1
    24    20    21   ar
    25    23    26    1
    26    23    22   ar
    27    26    27    2
    28    21    22   ar
    29    32    29    1
    30    27    29    1
    31    27    28    1
    32    29    33    1
    33    30    28    1
    34    28    31    1
@<TRIPOS>MOLECULE
./../dock_file/temp/cc5835d65acf9ed32aae84e485348313/Camostat_Ligand_CID_2536:hmTMPRSS2:20230411234231/Camostat_Ligand_CID_2536:hmTMPRSS2_out_2.pdbqt
 33 34 0 0 0
SMALL
GASTEIGER

@<TRIPOS>ATOM
      1  O          0.6620  -21.1180   21.0000 O.3     1  LIG1       -0.2750
      2  C          1.7580  -20.7980   20.2600 C.ar    1  LIG1        0.0790
      3  C          3.0040  -21.3330   20.5900 C.ar    1  LIG1        0.0380
      4  C          4.1270  -21.0050   19.8310 C.ar    1  LIG1        0.0100
      5  C          4.0050  -20.1430   18.7410 C.ar    1  LIG1       -0.0490
      6  C          2.7590  -19.6090   18.4110 C.ar    1  LIG1        0.0100
      7  C          1.6360  -19.9370   19.1700 C.ar    1  LIG1        0.0380
      8  C          5.2180  -19.7880   17.9210 C.3     1  LIG1        0.1490
      9  C          6.1440  -20.9610   17.7010 C.2     1  LIG1        0.2630
     10  O          7.2080  -21.1420   18.2760 O.2     1  LIG1       -0.2650
     11  O          5.6060  -21.7990   16.7530 O.3     1  LIG1       -0.3120
     12  C          5.1130  -21.1820   15.5820 C.3     1  LIG1        0.2810
     13  C          3.7960  -21.8180   15.1880 C.2     1  LIG1        0.2430
     14  O          3.0840  -22.3040   16.0700 O.2     1  LIG1       -0.2710
     15  N          3.4590  -21.8090   13.8340 N.am    1  LIG1       -0.3590
     16  C          4.2680  -21.2310   12.7630 C.3     1  LIG1        0.1520
     17  C          2.1980  -22.4020   13.4060 C.3     1  LIG1        0.1520
     18  C         -0.3180  -21.8240   20.3000 C.2     1  LIG1        0.2980
     19  O         -1.2720  -21.3310   19.7160 O.2     1  LIG1       -0.2590
     20  C         -0.0710  -23.2880   20.3600 C.ar    1  LIG1        0.0400
     21  C         -0.4830  -24.1080   19.3110 C.ar    1  LIG1        0.0200
     22  C         -0.2500  -25.4830   19.3680 C.ar    1  LIG1        0.0330
     23  C          0.3940  -26.0360   20.4750 C.ar    1  LIG1        0.0750
     24  C          0.8060  -25.2150   21.5250 C.ar    1  LIG1        0.0330
     25  C          0.5730  -23.8410   21.4680 C.ar    1  LIG1        0.0200
     26  N          0.6270  -27.4140   20.5320 N.pl3   1  LIG1       -0.0660
     27  C         -0.2360  -28.1780   21.1580 C.cat   1  LIG1        0.6920
     28  N         -1.3930  -27.7820   21.7940 N.pl3   1  LIG1       -0.2330
     29  N         -0.0430  -29.5370   21.2360 N.pl3   1  LIG1       -0.2330
     30  H         -1.6450  -26.8310   21.8100 H       1  LIG1        0.1740
     31  H         -1.9660  -28.4520   22.2340 H       1  LIG1        0.1740
     32  H          0.7480  -29.9470   20.8200 H       1  LIG1        0.1740
     33  H         -0.6990  -30.1000   21.7090 H       1  LIG1        0.1740
@<TRIPOS>BOND
     1    16    15    1
     2    17    15    1
     3    15    13   am
     4    13    12    1
     5    13    14    2
     6    12    11    1
     7    11     9    1
     8     9     8    1
     9     9    10    2
    10     8     5    1
    11     6     5   ar
    12     6     7   ar
    13     5     4   ar
    14     7     2   ar
    15    21    22   ar
    16    21    20   ar
    17    22    23   ar
    18    19    18    2
    19     4     3   ar
    20     2     3   ar
    21     2     1    1
    22    18    20    1
    23    18     1    1
    24    20    25   ar
    25    23    26    1
    26    23    24   ar
    27    26    27    2
    28    32    29    1
    29    27    29    1
    30    27    28    1
    31    29    33    1
    32    25    24   ar
    33    28    30    1
    34    28    31    1
@<TRIPOS>MOLECULE
./../dock_file/temp/cc5835d65acf9ed32aae84e485348313/Camostat_Ligand_CID_2536:hmTMPRSS2:20230411234231/Camostat_Ligand_CID_2536:hmTMPRSS2_out_2.pdbqt
 33 34 0 0 0
SMALL
GASTEIGER

@<TRIPOS>ATOM
      1  O          0.7320  -21.3270   21.0810 O.3     1  LIG1       -0.2750
      2  C          1.7800  -20.9240   20.3130 C.ar    1  LIG1        0.0790
      3  C          1.5690  -20.0530   19.2430 C.ar    1  LIG1        0.0380
      4  C          2.6440  -19.6410   18.4570 C.ar    1  LIG1        0.0100
      5  C          3.9310  -20.0980   18.7400 C.ar    1  LIG1       -0.0490
      6  C          4.1430  -20.9690   19.8090 C.ar    1  LIG1        0.0100
      7  C          3.0670  -21.3810   20.5960 C.ar    1  LIG1        0.0380
      8  C          5.0930  -19.6530   17.8900 C.3     1  LIG1        0.1490
      9  C          5.2020  -20.4200   16.5930 C.2     1  LIG1        0.2630
     10  O          4.9110  -19.9870   15.4870 O.2     1  LIG1       -0.2650
     11  O          5.6820  -21.6830   16.8450 O.3     1  LIG1       -0.3120
     12  C          7.0490  -21.7750   17.1900 C.3     1  LIG1        0.2810
     13  C          7.2950  -23.0560   17.9580 C.2     1  LIG1        0.2430
     14  O          6.8150  -23.1720   19.0890 O.2     1  LIG1       -0.2710
     15  N          8.0530  -24.0460   17.3310 N.am    1  LIG1       -0.3590
     16  C          8.6250  -23.9510   15.9890 C.3     1  LIG1        0.1520
     17  C          8.3100  -25.3000   18.0260 C.3     1  LIG1        0.1520
     18  C         -0.2620  -22.0160   20.3810 C.2     1  LIG1        0.2980
     19  O         -1.2050  -21.5070   19.7950 O.2     1  LIG1       -0.2590
     20  C         -0.0430  -23.4830   20.4470 C.ar    1  LIG1        0.0400
     21  C         -0.5630  -24.3110   19.4530 C.ar    1  LIG1        0.0200
     22  C         -0.3570  -25.6900   19.5150 C.ar    1  LIG1        0.0330
     23  C          0.3690  -26.2400   20.5710 C.ar    1  LIG1        0.0750
     24  C          0.8900  -25.4120   21.5650 C.ar    1  LIG1        0.0330
     25  C          0.6840  -24.0340   21.5040 C.ar    1  LIG1        0.0200
     26  N          0.5760  -27.6220   20.6320 N.pl3   1  LIG1       -0.0660
     27  C         -0.3090  -28.3690   21.2480 C.cat   1  LIG1        0.6920
     28  N         -1.4670  -27.9510   21.8680 N.pl3   1  LIG1       -0.2330
     29  N         -0.1430  -29.7310   21.3300 N.pl3   1  LIG1       -0.2330
     30  H         -1.7010  -26.9950   21.8800 H       1  LIG1        0.1740
     31  H         -2.0580  -28.6090   22.3010 H       1  LIG1        0.1740
     32  H          0.6460  -30.1560   20.9250 H       1  LIG1        0.1740
     33  H         -0.8160  -30.2810   21.7950 H       1  LIG1        0.1740
@<TRIPOS>BOND
     1    10     9    2
     2    16    15    1
     3     9    11    1
     4     9     8    1
     5    11    12    1
     6    12    13    1
     7    15    13   am
     8    15    17    1
     9     8     5    1
    10    13    14    2
    11     4     5   ar
    12     4     3   ar
    13     5     6   ar
    14     3     2   ar
    15    21    22   ar
    16    21    20   ar
    17    22    23   ar
    18    19    18    2
    19     6     7   ar
    20     2     7   ar
    21     2     1    1
    22    18    20    1
    23    18     1    1
    24    20    25   ar
    25    23    26    1
    26    23    24   ar
    27    26    27    2
    28    32    29    1
    29    27    29    1
    30    27    28    1
    31    29    33    1
    32    25    24   ar
    33    28    30    1
    34    28    31    1
@<TRIPOS>MOLECULE
./../dock_file/temp/cc5835d65acf9ed32aae84e485348313/Camostat_Ligand_CID_2536:hmTMPRSS2:20230411234231/Camostat_Ligand_CID_2536:hmTMPRSS2_out_2.pdbqt
 33 34 0 0 0
SMALL
GASTEIGER

@<TRIPOS>ATOM
      1  O          0.6770  -20.0400   18.5750 O.3     1  LIG1       -0.2750
      2  C          2.0170  -20.0050   18.3410 C.ar    1  LIG1        0.0790
      3  C          2.9150  -20.1610   19.3970 C.ar    1  LIG1        0.0380
      4  C          4.2880  -20.1260   19.1570 C.ar    1  LIG1        0.0100
      5  C          4.7640  -19.9350   17.8590 C.ar    1  LIG1       -0.0490
      6  C          3.8660  -19.7780   16.8030 C.ar    1  LIG1        0.0100
      7  C          2.4930  -19.8140   17.0440 C.ar    1  LIG1        0.0380
      8  C          6.2480  -19.8960   17.5990 C.3     1  LIG1        0.1490
      9  C          6.8720  -21.2710   17.5400 C.2     1  LIG1        0.2630
     10  O          7.5880  -21.7610   18.4020 O.2     1  LIG1       -0.2650
     11  O          6.5090  -21.8900   16.3680 O.3     1  LIG1       -0.3120
     12  C          7.0250  -23.1880   16.1620 C.3     1  LIG1        0.2810
     13  C          7.8480  -23.2130   14.8910 C.2     1  LIG1        0.2430
     14  O          9.0570  -22.9740   14.9620 O.2     1  LIG1       -0.2710
     15  N          7.1850  -23.5180   13.7020 N.am    1  LIG1       -0.3590
     16  C          5.7610  -23.8210   13.5800 C.3     1  LIG1        0.1520
     17  C          7.9370  -23.5620   12.4540 C.3     1  LIG1        0.1520
     18  C          0.0520  -21.2190   18.1630 C.2     1  LIG1        0.2980
     19  O         -0.6660  -21.3400   17.1820 O.2     1  LIG1       -0.2590
     20  C          0.3560  -22.3390   19.0910 C.ar    1  LIG1        0.0400
     21  C          0.9090  -23.5210   18.5990 C.ar    1  LIG1        0.0200
     22  C          1.1950  -24.5720   19.4710 C.ar    1  LIG1        0.0330
     23  C          0.9270  -24.4410   20.8330 C.ar    1  LIG1        0.0750
     24  C          0.3740  -23.2590   21.3250 C.ar    1  LIG1        0.0330
     25  C          0.0880  -22.2080   20.4540 C.ar    1  LIG1        0.0200
     26  N          1.2140  -25.4960   21.7070 N.pl3   1  LIG1       -0.0660
     27  C          0.2940  -26.4050   21.9270 C.cat   1  LIG1        0.6920
     28  N         -0.9720  -26.4580   21.3860 N.pl3   1  LIG1       -0.2330
     29  N          0.5360  -27.4570   22.7780 N.pl3   1  LIG1       -0.2330
     30  H         -1.2700  -25.7610   20.7600 H       1  LIG1        0.1740
     31  H         -1.5800  -27.1950   21.6280 H       1  LIG1        0.1740
     32  H          1.4070  -27.5340   23.2300 H       1  LIG1        0.1740
     33  H         -0.1620  -28.1330   22.9350 H       1  LIG1        0.1740
@<TRIPOS>BOND
     1    17    15    1
     2    16    15    1
     3    15    13   am
     4    13    14    2
     5    13    12    1
     6    12    11    1
     7    11     9    1
     8     6     7   ar
     9     6     5   ar
    10     7     2   ar
    11    19    18    2
    12     9     8    1
    13     9    10    2
    14     8     5    1
    15     5     4   ar
    16    18     1    1
    17    18    20    1
    18     2     1    1
    19     2     3   ar
    20    21    20   ar
    21    21    22   ar
    22    20    25   ar
    23     4     3   ar
    24    22    23   ar
    25    25    24   ar
    26    30    28    1
    27    23    24   ar
    28    23    26    1
    29    28    31    1
    30    28    27    1
    31    26    27    2
    32    27    29    1
    33    29    33    1
    34    29    32    1
