@<TRIPOS>MOLECULE
./../dock_file/temp/cc5835d65acf9ed32aae84e485348313/Camostat_Ligand_CID_2536:hmTMPRSS2:20230411234231/Camostat_Ligand_CID_2536:hmTMPRSS2_out_1.pdbqt
 33 34 0 0 0
SMALL
GASTEIGER

@<TRIPOS>ATOM
      1  O         -8.8630   10.8920   18.7140 O.3     1  LIG1       -0.2750
      2  C         -9.8290   10.0540   19.1770 C.ar    1  LIG1        0.0790
      3  C        -10.0550    9.9380   20.5490 C.ar    1  LIG1        0.0380
      4  C        -11.0460    9.0790   21.0230 C.ar    1  LIG1        0.0100
      5  C        -11.8120    8.3350   20.1250 C.ar    1  LIG1       -0.0490
      6  C        -11.5870    8.4510   18.7540 C.ar    1  LIG1        0.0100
      7  C        -10.5950    9.3100   18.2790 C.ar    1  LIG1        0.0380
      8  C        -12.8830    7.4070   20.6370 C.3     1  LIG1        0.1490
      9  C        -12.7210    5.9900   20.1390 C.2     1  LIG1        0.2630
     10  O        -13.5940    5.3250   19.5990 O.2     1  LIG1       -0.2650
     11  O        -11.4390    5.5600   20.3850 O.3     1  LIG1       -0.3120
     12  C        -11.1770    4.1970   20.1270 C.3     1  LIG1        0.2810
     13  C         -9.9400    4.0710   19.2620 C.2     1  LIG1        0.2430
     14  O         -8.8370    4.0010   19.8100 O.2     1  LIG1       -0.2710
     15  N        -10.1240    4.0330   17.8790 N.am    1  LIG1       -0.3590
     16  C        -11.4130    4.0990   17.1940 C.3     1  LIG1        0.1520
     17  C         -8.9650    3.9040   17.0050 C.3     1  LIG1        0.1520
     18  C         -7.5640   10.3890   18.8260 C.2     1  LIG1        0.2980
     19  O         -7.2420    9.2160   18.7180 O.2     1  LIG1       -0.2590
     20  C         -6.5930   11.4750   19.1150 C.ar    1  LIG1        0.0400
     21  C         -7.0150   12.8030   19.1260 C.ar    1  LIG1        0.0200
     22  C         -6.1020   13.8230   19.3980 C.ar    1  LIG1        0.0330
     23  C         -4.7680   13.5140   19.6590 C.ar    1  LIG1        0.0750
     24  C         -4.3450   12.1840   19.6480 C.ar    1  LIG1        0.0330
     25  C         -5.2570   11.1650   19.3760 C.ar    1  LIG1        0.0200
     26  N         -3.8530   14.5360   19.9320 N.pl3   1  LIG1       -0.0660
     27  C         -3.0360   14.9250   18.9830 C.cat   1  LIG1        0.6920
     28  N         -2.9570   14.4370   17.6970 N.pl3   1  LIG1       -0.2330
     29  N         -2.1220   15.9270   19.2110 N.pl3   1  LIG1       -0.2330
     30  H         -3.5590   13.7150   17.4070 H       1  LIG1        0.1740
     31  H         -2.2970   14.8110   17.0680 H       1  LIG1        0.1740
     32  H         -2.0760   16.3610   20.0930 H       1  LIG1        0.1740
     33  H         -1.5140   16.2110   18.4900 H       1  LIG1        0.1740
@<TRIPOS>BOND
     1    17    15    1
     2    31    28    1
     3    16    15    1
     4    30    28    1
     5    28    27    1
     6    15    13   am
     7     7     6   ar
     8     7     2   ar
     9    33    29    1
    10     1    18    1
    11     1     2    1
    12    19    18    2
    13     6     5   ar
    14    18    20    1
    15    27    29    1
    16    27    26    2
    17    20    21   ar
    18    20    25   ar
    19    21    22   ar
    20     2     3   ar
    21    29    32    1
    22    13    14    2
    23    13    12    1
    24    25    24   ar
    25    22    23   ar
    26    10     9    2
    27    24    23   ar
    28    23    26    1
    29     5     8    1
    30     5     4   ar
    31    12    11    1
    32     9    11    1
    33     9     8    1
    34     3     4   ar
@<TRIPOS>MOLECULE
./../dock_file/temp/cc5835d65acf9ed32aae84e485348313/Camostat_Ligand_CID_2536:hmTMPRSS2:20230411234231/Camostat_Ligand_CID_2536:hmTMPRSS2_out_1.pdbqt
 33 34 0 0 0
SMALL
GASTEIGER

@<TRIPOS>ATOM
      1  O         -2.4190   13.3490    7.0330 O.3     1  LIG1       -0.2750
      2  C         -3.5340   13.7490    6.3630 C.ar    1  LIG1        0.0790
      3  C         -4.6460   12.9080    6.2930 C.ar    1  LIG1        0.0380
      4  C         -5.7880   13.3180    5.6060 C.ar    1  LIG1        0.0100
      5  C         -5.8200   14.5690    4.9900 C.ar    1  LIG1       -0.0490
      6  C         -4.7090   15.4100    5.0600 C.ar    1  LIG1        0.0100
      7  C         -3.5660   14.9990    5.7470 C.ar    1  LIG1        0.0380
      8  C         -7.0540   15.0120    4.2480 C.3     1  LIG1        0.1490
      9  C         -8.2360   15.2490    5.1590 C.2     1  LIG1        0.2630
     10  O         -8.2760   16.0640    6.0700 O.2     1  LIG1       -0.2650
     11  O         -9.2640   14.4070    4.8050 O.3     1  LIG1       -0.3120
     12  C         -9.0050   13.5190    3.7380 C.3     1  LIG1        0.2810
     13  C         -9.3690   12.1080    4.1510 C.2     1  LIG1        0.2430
     14  O         -8.7250   11.5690    5.0550 O.2     1  LIG1       -0.2710
     15  N        -10.4300   11.4970    3.4810 N.am    1  LIG1       -0.3590
     16  C        -11.2250   12.1070    2.4180 C.3     1  LIG1        0.1520
     17  C        -10.8230   10.1430    3.8490 C.3     1  LIG1        0.1520
     18  C         -2.2370   13.9730    8.2700 C.2     1  LIG1        0.2980
     19  O         -3.0740   14.0550    9.1560 O.2     1  LIG1       -0.2590
     20  C         -0.8760   14.5560    8.3800 C.ar    1  LIG1        0.0400
     21  C         -0.2660   14.6700    9.6280 C.ar    1  LIG1        0.0200
     22  C          1.0130   15.2180    9.7320 C.ar    1  LIG1        0.0330
     23  C          1.6810   15.6520    8.5870 C.ar    1  LIG1        0.0750
     24  C          1.0710   15.5380    7.3380 C.ar    1  LIG1        0.0330
     25  C         -0.2080   14.9910    7.2350 C.ar    1  LIG1        0.0200
     26  N          2.9640   16.2010    8.6910 N.pl3   1  LIG1       -0.0660
     27  C          4.0010   15.4390    8.4410 C.cat   1  LIG1        0.6920
     28  N          3.9930   14.1110    8.0730 N.pl3   1  LIG1       -0.2330
     29  N          5.2790   15.9410    8.5320 N.pl3   1  LIG1       -0.2330
     30  H          3.1380   13.6340    7.9740 H       1  LIG1        0.1740
     31  H          4.8420   13.6400    7.9120 H       1  LIG1        0.1740
     32  H          5.4220   16.8800    8.7860 H       1  LIG1        0.1740
     33  H          6.0500   15.3590    8.3410 H       1  LIG1        0.1740
@<TRIPOS>BOND
     1    16    15    1
     2    15    17    1
     3    15    13   am
     4    12    13    1
     5    12    11    1
     6    13    14    2
     7     8     5    1
     8     8     9    1
     9    11     9    1
    10     5     6   ar
    11     5     4   ar
    12     6     7   ar
    13     9    10    2
    14     4     3   ar
    15     7     2   ar
    16     3     2   ar
    17     2     1    1
    18     1    18    1
    19    25    24   ar
    20    25    20   ar
    21    24    23   ar
    22    31    28    1
    23    30    28    1
    24    28    27    1
    25    18    20    1
    26    18    19    2
    27    33    29    1
    28    20    21   ar
    29    27    29    1
    30    27    26    2
    31    29    32    1
    32    23    26    1
    33    23    22   ar
    34    21    22   ar
@<TRIPOS>MOLECULE
./../dock_file/temp/cc5835d65acf9ed32aae84e485348313/Camostat_Ligand_CID_2536:hmTMPRSS2:20230411234231/Camostat_Ligand_CID_2536:hmTMPRSS2_out_1.pdbqt
 33 34 0 0 0
SMALL
GASTEIGER

@<TRIPOS>ATOM
      1  O         -5.7890   10.8810   21.2410 O.3     1  LIG1       -0.2750
      2  C         -6.8630   10.5720   20.4640 C.ar    1  LIG1        0.0790
      3  C         -6.6720   10.0580   19.1810 C.ar    1  LIG1        0.0380
      4  C         -7.7730    9.7420   18.3860 C.ar    1  LIG1        0.0100
      5  C         -9.0660    9.9380   18.8740 C.ar    1  LIG1       -0.0490
      6  C         -9.2560   10.4510   20.1570 C.ar    1  LIG1        0.0100
      7  C         -8.1540   10.7680   20.9520 C.ar    1  LIG1        0.0380
      8  C        -10.2550    9.5960   18.0150 C.3     1  LIG1        0.1490
      9  C        -10.1100    8.2690   17.3080 C.2     1  LIG1        0.2630
     10  O         -9.9610    8.1200   16.1040 O.2     1  LIG1       -0.2650
     11  O        -10.1690    7.2490   18.2290 O.3     1  LIG1       -0.3120
     12  C        -11.3620    6.4940   18.2480 C.3     1  LIG1        0.2810
     13  C        -12.0570    6.6730   19.5820 C.2     1  LIG1        0.2430
     14  O        -11.4490    7.2340   20.4970 O.2     1  LIG1       -0.2710
     15  N        -13.3630    6.1940   19.6950 N.am    1  LIG1       -0.3590
     16  C        -14.1200    5.5390   18.6310 C.3     1  LIG1        0.1520
     17  C        -14.0760    6.3510   20.9570 C.3     1  LIG1        0.1520
     18  C         -5.8210   12.1690   21.7810 C.2     1  LIG1        0.2980
     19  O         -6.3120   12.4780   22.8560 O.2     1  LIG1       -0.2590
     20  C         -5.1860   13.1500   20.8650 C.ar    1  LIG1        0.0400
     21  C         -4.2170   12.7280   19.9550 C.ar    1  LIG1        0.0200
     22  C         -3.6210   13.6500   19.0940 C.ar    1  LIG1        0.0330
     23  C         -3.9930   14.9930   19.1440 C.ar    1  LIG1        0.0750
     24  C         -4.9630   15.4150   20.0540 C.ar    1  LIG1        0.0330
     25  C         -5.5590   14.4940   20.9150 C.ar    1  LIG1        0.0200
     26  N         -3.3950   15.9170   18.2800 N.pl3   1  LIG1       -0.0660
     27  C         -2.2740   16.4920   18.6450 C.cat   1  LIG1        0.6920
     28  N         -1.5790   16.2960   19.8180 N.pl3   1  LIG1       -0.2330
     29  N         -1.6540   17.4060   17.8250 N.pl3   1  LIG1       -0.2330
     30  H         -1.9190   15.6640   20.4920 H       1  LIG1        0.1740
     31  H         -0.7420   16.7890   19.9830 H       1  LIG1        0.1740
     32  H         -2.0510   17.6340   16.9540 H       1  LIG1        0.1740
     33  H         -0.8130   17.8300   18.1100 H       1  LIG1        0.1740
@<TRIPOS>BOND
     1    10     9    2
     2    32    29    1
     3     9     8    1
     4     9    11    1
     5    29    33    1
     6    29    27    1
     7     8     5    1
     8    11    12    1
     9    12    13    1
    10    26    27    2
    11    26    23    1
    12     4     5   ar
    13     4     3   ar
    14    16    15    1
    15    27    28    1
    16     5     6   ar
    17    22    23   ar
    18    22    21   ar
    19    23    24   ar
    20     3     2   ar
    21    13    15   am
    22    13    14    2
    23    15    17    1
    24    28    31    1
    25    28    30    1
    26    21    20   ar
    27    24    25   ar
    28     6     7   ar
    29     2     7   ar
    30     2     1    1
    31    20    25   ar
    32    20    18    1
    33     1    18    1
    34    18    19    2
@<TRIPOS>MOLECULE
./../dock_file/temp/cc5835d65acf9ed32aae84e485348313/Camostat_Ligand_CID_2536:hmTMPRSS2:20230411234231/Camostat_Ligand_CID_2536:hmTMPRSS2_out_1.pdbqt
 33 34 0 0 0
SMALL
GASTEIGER

@<TRIPOS>ATOM
      1  O         -9.8660   11.1190   20.4400 O.3     1  LIG1       -0.2750
      2  C        -10.1820   10.1440   19.5450 C.ar    1  LIG1        0.0790
      3  C         -9.5720   10.1230   18.2900 C.ar    1  LIG1        0.0380
      4  C         -9.8970    9.1240   17.3730 C.ar    1  LIG1        0.0100
      5  C        -10.8300    8.1440   17.7110 C.ar    1  LIG1       -0.0490
      6  C        -11.4400    8.1650   18.9650 C.ar    1  LIG1        0.0100
      7  C        -11.1160    9.1650   19.8830 C.ar    1  LIG1        0.0380
      8  C        -11.1810    7.0640   16.7200 C.3     1  LIG1        0.1490
      9  C        -10.0950    6.0250   16.5730 C.2     1  LIG1        0.2630
     10  O         -9.6310    5.6300   15.5120 O.2     1  LIG1       -0.2650
     11  O         -9.7040    5.5890   17.8170 O.3     1  LIG1       -0.3120
     12  C        -10.1950    4.3280   18.2200 C.3     1  LIG1        0.2810
     13  C        -11.2500    4.5100   19.2900 C.2     1  LIG1        0.2430
     14  O        -10.8920    4.8200   20.4300 O.2     1  LIG1       -0.2710
     15  N        -12.5820    4.3220   18.9180 N.am    1  LIG1       -0.3590
     16  C        -13.0450    3.9700   17.5780 C.3     1  LIG1        0.1520
     17  C        -13.6340    4.4950   19.9120 C.3     1  LIG1        0.1520
     18  C         -8.7100   10.8650   21.1820 C.2     1  LIG1        0.2980
     19  O         -8.6710   10.3320   22.2810 O.2     1  LIG1       -0.2590
     20  C         -7.4990   11.3450   20.4690 C.ar    1  LIG1        0.0400
     21  C         -6.3550   10.5490   20.4230 C.ar    1  LIG1        0.0200
     22  C         -5.2180   11.0000   19.7520 C.ar    1  LIG1        0.0330
     23  C         -5.2250   12.2480   19.1290 C.ar    1  LIG1        0.0750
     24  C         -6.3690   13.0450   19.1760 C.ar    1  LIG1        0.0330
     25  C         -7.5060   12.5940   19.8460 C.ar    1  LIG1        0.0200
     26  N         -4.0840   12.7010   18.4570 N.pl3   1  LIG1       -0.0660
     27  C         -3.3490   13.6340   19.0130 C.cat   1  LIG1        0.6920
     28  N         -3.5640   14.2530   20.2260 N.pl3   1  LIG1       -0.2330
     29  N         -2.2200   14.1060   18.3860 N.pl3   1  LIG1       -0.2330
     30  H         -4.3410   14.0050   20.7740 H       1  LIG1        0.1740
     31  H         -2.9380   14.9460   20.5410 H       1  LIG1        0.1740
     32  H         -1.9560   13.7430   17.5100 H       1  LIG1        0.1740
     33  H         -1.6770   14.8060   18.8140 H       1  LIG1        0.1740
@<TRIPOS>BOND
     1    10     9    2
     2     9     8    1
     3     9    11    1
     4     8     5    1
     5     4     5   ar
     6     4     3   ar
     7    32    29    1
     8    16    15    1
     9     5     6   ar
    10    11    12    1
    11    12    13    1
    12     3     2   ar
    13    29    33    1
    14    29    27    1
    15    26    27    2
    16    26    23    1
    17    15    13   am
    18    15    17    1
    19     6     7   ar
    20    27    28    1
    21    23    24   ar
    22    23    22   ar
    23    24    25   ar
    24    13    14    2
    25     2     7   ar
    26     2     1    1
    27    22    21   ar
    28    25    20   ar
    29    28    31    1
    30    28    30    1
    31    21    20   ar
    32     1    18    1
    33    20    18    1
    34    18    19    2
@<TRIPOS>MOLECULE
./../dock_file/temp/cc5835d65acf9ed32aae84e485348313/Camostat_Ligand_CID_2536:hmTMPRSS2:20230411234231/Camostat_Ligand_CID_2536:hmTMPRSS2_out_1.pdbqt
 33 34 0 0 0
SMALL
GASTEIGER

@<TRIPOS>ATOM
      1  O         -2.4030   13.3080    7.1530 O.3     1  LIG1       -0.2750
      2  C         -3.4590   13.8060    6.4550 C.ar    1  LIG1        0.0790
      3  C         -3.3330   15.0090    5.7600 C.ar    1  LIG1        0.0380
      4  C         -4.4150   15.5180    5.0450 C.ar    1  LIG1        0.0100
      5  C         -5.6260   14.8250    5.0230 C.ar    1  LIG1       -0.0490
      6  C         -5.7530   13.6220    5.7180 C.ar    1  LIG1        0.0100
      7  C         -4.6690   13.1120    6.4330 C.ar    1  LIG1        0.0380
      8  C         -6.7960   15.3760    4.2500 C.3     1  LIG1        0.1490
      9  C         -7.6400   16.3310    5.0600 C.2     1  LIG1        0.2630
     10  O         -8.7170   16.0630    5.5750 O.2     1  LIG1       -0.2650
     11  O         -7.0120   17.5510    5.1320 O.3     1  LIG1       -0.3120
     12  C         -7.1980   18.2800    6.3270 C.3     1  LIG1        0.2810
     13  C         -6.0850   17.9520    7.3010 C.2     1  LIG1        0.2430
     14  O         -4.9270   18.2580    7.0040 O.2     1  LIG1       -0.2710
     15  N         -6.4410   17.3240    8.4950 N.am    1  LIG1       -0.3590
     16  C         -7.8010   16.9610    8.8890 C.3     1  LIG1        0.1520
     17  C         -5.4070   16.9970    9.4680 C.3     1  LIG1        0.1520
     18  C         -2.1930   13.9200    8.3920 C.2     1  LIG1        0.2980
     19  O         -3.0040   13.9800    9.3030 O.2     1  LIG1       -0.2590
     20  C         -0.8370   14.5200    8.4700 C.ar    1  LIG1        0.0400
     21  C         -0.2020   14.6510    9.7040 C.ar    1  LIG1        0.0200
     22  C          1.0720   15.2140    9.7770 C.ar    1  LIG1        0.0330
     23  C          1.7110   15.6460    8.6160 C.ar    1  LIG1        0.0750
     24  C          1.0770   15.5150    7.3800 C.ar    1  LIG1        0.0330
     25  C         -0.1970   14.9520    7.3070 C.ar    1  LIG1        0.0200
     26  N          2.9890   16.2110    8.6890 N.pl3   1  LIG1       -0.0660
     27  C          4.0310   15.4590    8.4240 C.cat   1  LIG1        0.6920
     28  N          4.0300   14.1280    8.0680 N.pl3   1  LIG1       -0.2330
     29  N          5.3030   15.9760    8.4850 N.pl3   1  LIG1       -0.2330
     30  H          3.1790   13.6400    7.9900 H       1  LIG1        0.1740
     31  H          4.8820   13.6650    7.8930 H       1  LIG1        0.1740
     32  H          5.4410   16.9190    8.7280 H       1  LIG1        0.1740
     33  H          6.0770   15.4010    8.2830 H       1  LIG1        0.1740
@<TRIPOS>BOND
     1     8     5    1
     2     8     9    1
     3     5     4   ar
     4     5     6   ar
     5     4     3   ar
     6     9    11    1
     7     9    10    2
     8    11    12    1
     9     6     7   ar
    10     3     2   ar
    11    12    13    1
    12     7     2   ar
    13     2     1    1
    14    14    13    2
    15     1    18    1
    16    13    15   am
    17    25    24   ar
    18    25    20   ar
    19    24    23   ar
    20    31    28    1
    21    30    28    1
    22    28    27    1
    23    33    29    1
    24    18    20    1
    25    18    19    2
    26    27    29    1
    27    27    26    2
    28    20    21   ar
    29    29    32    1
    30    15    16    1
    31    15    17    1
    32    23    26    1
    33    23    22   ar
    34    21    22   ar
@<TRIPOS>MOLECULE
./../dock_file/temp/cc5835d65acf9ed32aae84e485348313/Camostat_Ligand_CID_2536:hmTMPRSS2:20230411234231/Camostat_Ligand_CID_2536:hmTMPRSS2_out_1.pdbqt
 33 34 0 0 0
SMALL
GASTEIGER

@<TRIPOS>ATOM
      1  O         -5.6020   10.9310   20.8190 O.3     1  LIG1       -0.2750
      2  C         -6.8430   10.6230   20.3530 C.ar    1  LIG1        0.0790
      3  C         -6.9910   10.0440   19.0920 C.ar    1  LIG1        0.0380
      4  C         -8.2630    9.7290   18.6150 C.ar    1  LIG1        0.0100
      5  C         -9.3870    9.9930   19.3980 C.ar    1  LIG1       -0.0490
      6  C         -9.2390   10.5730   20.6580 C.ar    1  LIG1        0.0100
      7  C         -7.9670   10.8880   21.1350 C.ar    1  LIG1        0.0380
      8  C        -10.7620    9.6530   18.8820 C.3     1  LIG1        0.1490
      9  C        -11.2070    8.2610   19.2660 C.2     1  LIG1        0.2630
     10  O        -11.2330    7.8140   20.4040 O.2     1  LIG1       -0.2650
     11  O        -11.5820    7.5710   18.1370 O.3     1  LIG1       -0.3120
     12  C        -10.5620    7.3140   17.1950 C.3     1  LIG1        0.2810
     13  C        -10.2070    5.8420   17.2180 C.2     1  LIG1        0.2430
     14  O        -10.2790    5.2310   18.2880 O.2     1  LIG1       -0.2710
     15  N         -9.8240    5.2550   16.0120 N.am    1  LIG1       -0.3590
     16  C         -9.7420    5.9400   14.7240 C.3     1  LIG1        0.1520
     17  C         -9.4810    3.8390   15.9830 C.3     1  LIG1        0.1520
     18  C         -5.5300   12.1470   21.5030 C.2     1  LIG1        0.2980
     19  O         -5.9340   12.3520   22.6370 O.2     1  LIG1       -0.2590
     20  C         -4.9020   13.1980   20.6620 C.ar    1  LIG1        0.0400
     21  C         -5.1700   14.5430   20.9110 C.ar    1  LIG1        0.0200
     22  C         -4.5800   15.5300   20.1210 C.ar    1  LIG1        0.0330
     23  C         -3.7220   15.1710   19.0820 C.ar    1  LIG1        0.0750
     24  C         -3.4540   13.8250   18.8320 C.ar    1  LIG1        0.0330
     25  C         -4.0440   12.8380   19.6220 C.ar    1  LIG1        0.0200
     26  N         -3.1300   16.1610   18.2900 N.pl3   1  LIG1       -0.0660
     27  C         -2.0230   16.7270   18.7050 C.cat   1  LIG1        0.6920
     28  N         -1.3370   16.4630   19.8710 N.pl3   1  LIG1       -0.2330
     29  N         -1.4100   17.7040   17.9570 N.pl3   1  LIG1       -0.2330
     30  H         -1.6740   15.7830   20.4970 H       1  LIG1        0.1740
     31  H         -0.5110   16.9570   20.0780 H       1  LIG1        0.1740
     32  H         -1.8010   17.9850   17.0980 H       1  LIG1        0.1740
     33  H         -0.5780   18.1210   18.2790 H       1  LIG1        0.1740
@<TRIPOS>BOND
     1    16    15    1
     2    17    15    1
     3    15    13   am
     4    32    29    1
     5    12    13    1
     6    12    11    1
     7    13    14    2
     8    29    33    1
     9    29    27    1
    10    11     9    1
    11    26    27    2
    12    26    23    1
    13     4     3   ar
    14     4     5   ar
    15    27    28    1
    16    24    23   ar
    17    24    25   ar
    18     8     9    1
    19     8     5    1
    20    23    22   ar
    21     3     2   ar
    22     9    10    2
    23     5     6   ar
    24    25    20   ar
    25    28    31    1
    26    28    30    1
    27    22    21   ar
    28     2     1    1
    29     2     7   ar
    30     6     7   ar
    31    20    21   ar
    32    20    18    1
    33     1    18    1
    34    18    19    2
@<TRIPOS>MOLECULE
./../dock_file/temp/cc5835d65acf9ed32aae84e485348313/Camostat_Ligand_CID_2536:hmTMPRSS2:20230411234231/Camostat_Ligand_CID_2536:hmTMPRSS2_out_1.pdbqt
 33 34 0 0 0
SMALL
GASTEIGER

@<TRIPOS>ATOM
      1  O         -5.3510   11.8680   20.1260 O.3     1  LIG1       -0.2750
      2  C         -6.5070   11.3500   19.6280 C.ar    1  LIG1        0.0790
      3  C         -7.6460   12.1500   19.5330 C.ar    1  LIG1        0.0380
      4  C         -8.8300   11.6200   19.0230 C.ar    1  LIG1        0.0100
      5  C         -8.8770   10.2890   18.6060 C.ar    1  LIG1       -0.0490
      6  C         -7.7380    9.4890   18.7010 C.ar    1  LIG1        0.0100
      7  C         -6.5530   10.0200   19.2120 C.ar    1  LIG1        0.0380
      8  C        -10.1560    9.7160   18.0550 C.3     1  LIG1        0.1490
      9  C        -11.1950    9.4590   19.1220 C.2     1  LIG1        0.2630
     10  O        -12.0170   10.2720   19.5210 O.2     1  LIG1       -0.2650
     11  O        -11.0750    8.1680   19.5780 O.3     1  LIG1       -0.3120
     12  C        -11.7870    7.1830   18.8590 C.3     1  LIG1        0.2810
     13  C        -11.1290    5.8330   19.0550 C.2     1  LIG1        0.2430
     14  O        -11.1260    5.3330   20.1840 O.2     1  LIG1       -0.2710
     15  N        -10.5670    5.2230   17.9330 N.am    1  LIG1       -0.3590
     16  C        -10.5650    5.7760   16.5810 C.3     1  LIG1        0.1520
     17  C         -9.9300    3.9200   18.0710 C.3     1  LIG1        0.1520
     18  C         -4.5050   12.4180   19.1600 C.2     1  LIG1        0.2980
     19  O         -4.1240   11.8570   18.1440 O.2     1  LIG1       -0.2590
     20  C         -4.0970   13.7970   19.5290 C.ar    1  LIG1        0.0400
     21  C         -4.1660   14.2130   20.8580 C.ar    1  LIG1        0.0200
     22  C         -3.7820   15.5090   21.2040 C.ar    1  LIG1        0.0330
     23  C         -3.3290   16.3880   20.2210 C.ar    1  LIG1        0.0750
     24  C         -3.2590   15.9720   18.8920 C.ar    1  LIG1        0.0330
     25  C         -3.6440   14.6770   18.5450 C.ar    1  LIG1        0.0200
     26  N         -2.9440   17.6880   20.5690 N.pl3   1  LIG1       -0.0660
     27  C         -1.6940   18.0440   20.4010 C.cat   1  LIG1        0.6920
     28  N         -0.6650   17.2720   19.9060 N.pl3   1  LIG1       -0.2330
     29  N         -1.2750   19.3120   20.7300 N.pl3   1  LIG1       -0.2330
     30  H         -0.8340   16.3420   19.6330 H       1  LIG1        0.1740
     31  H          0.2400   17.6520   19.8260 H       1  LIG1        0.1740
     32  H         -1.9160   19.9630   21.0940 H       1  LIG1        0.1740
     33  H         -0.3330   19.5680   20.5980 H       1  LIG1        0.1740
@<TRIPOS>BOND
     1    16    15    1
     2    15    17    1
     3    15    13   am
     4     8     5    1
     5     8     9    1
     6    19    18    2
     7    25    24   ar
     8    25    20   ar
     9     5     6   ar
    10     5     4   ar
    11     6     7   ar
    12    12    13    1
    13    12    11    1
    14    24    23   ar
    15     4     3   ar
    16    13    14    2
    17     9    10    2
    18     9    11    1
    19    18    20    1
    20    18     1    1
    21     7     2   ar
    22    20    21   ar
    23     3     2   ar
    24     2     1    1
    25    30    28    1
    26    31    28    1
    27    28    27    1
    28    23    26    1
    29    23    22   ar
    30    27    26    2
    31    27    29    1
    32    33    29    1
    33    29    32    1
    34    21    22   ar
@<TRIPOS>MOLECULE
./../dock_file/temp/cc5835d65acf9ed32aae84e485348313/Camostat_Ligand_CID_2536:hmTMPRSS2:20230411234231/Camostat_Ligand_CID_2536:hmTMPRSS2_out_1.pdbqt
 33 34 0 0 0
SMALL
GASTEIGER

@<TRIPOS>ATOM
      1  O         -7.6280   11.5120   20.9380 O.3     1  LIG1       -0.2750
      2  C         -8.2490   10.8290   19.9370 C.ar    1  LIG1        0.0790
      3  C         -9.6090   11.0250   19.6970 C.ar    1  LIG1        0.0380
      4  C        -10.2440   10.3250   18.6720 C.ar    1  LIG1        0.0100
      5  C         -9.5190    9.4290   17.8860 C.ar    1  LIG1       -0.0490
      6  C         -8.1590    9.2330   18.1260 C.ar    1  LIG1        0.0100
      7  C         -7.5240    9.9340   19.1510 C.ar    1  LIG1        0.0380
      8  C        -10.2050    8.6730   16.7780 C.3     1  LIG1        0.1490
      9  C        -10.4220    7.2140   17.1070 C.2     1  LIG1        0.2630
     10  O        -10.5310    6.7500   18.2330 O.2     1  LIG1       -0.2650
     11  O        -10.4790    6.4850   15.9430 O.3     1  LIG1       -0.3120
     12  C         -9.9300    7.0970   14.7950 C.3     1  LIG1        0.2810
     13  C        -10.1080    6.1860   13.5980 C.2     1  LIG1        0.2430
     14  O        -10.1350    4.9660   13.7800 O.2     1  LIG1       -0.2710
     15  N        -10.2410    6.7890   12.3460 N.am    1  LIG1       -0.3590
     16  C        -10.2290    8.2280   12.0930 C.3     1  LIG1        0.1520
     17  C        -10.4220    5.9540   11.1660 C.3     1  LIG1        0.1520
     18  C         -6.2430   11.3380   20.9800 C.2     1  LIG1        0.2980
     19  O         -5.6560   10.4240   21.5400 O.2     1  LIG1       -0.2590
     20  C         -5.5430   12.4310   20.2580 C.ar    1  LIG1        0.0400
     21  C         -4.5410   12.1290   19.3370 C.ar    1  LIG1        0.0200
     22  C         -3.8840   13.1560   18.6590 C.ar    1  LIG1        0.0330
     23  C         -4.2290   14.4850   18.9020 C.ar    1  LIG1        0.0750
     24  C         -5.2320   14.7880   19.8230 C.ar    1  LIG1        0.0330
     25  C         -5.8890   13.7610   20.5010 C.ar    1  LIG1        0.0200
     26  N         -3.5710   15.5150   18.2220 N.pl3   1  LIG1       -0.0660
     27  C         -2.6100   16.1650   18.8330 C.cat   1  LIG1        0.6920
     28  N         -2.1450   15.9570   20.1140 N.pl3   1  LIG1       -0.2330
     29  N         -1.9380   17.1830   18.1990 N.pl3   1  LIG1       -0.2330
     30  H         -2.5440   15.2540   20.6740 H       1  LIG1        0.1740
     31  H         -1.4120   16.5130   20.4670 H       1  LIG1        0.1740
     32  H         -2.1750   17.4310   17.2770 H       1  LIG1        0.1740
     33  H         -1.2170   17.6640   18.6690 H       1  LIG1        0.1740
@<TRIPOS>BOND
     1    17    15    1
     2    16    15    1
     3    15    13   am
     4    13    14    2
     5    13    12    1
     6    12    11    1
     7    11     9    1
     8     8     9    1
     9     8     5    1
    10     9    10    2
    11    32    29    1
    12     5     6   ar
    13     5     4   ar
    14     6     7   ar
    15    29    33    1
    16    29    27    1
    17    26    27    2
    18    26    23    1
    19    22    23   ar
    20    22    21   ar
    21     4     3   ar
    22    27    28    1
    23    23    24   ar
    24     7     2   ar
    25    21    20   ar
    26     3     2   ar
    27    24    25   ar
    28     2     1    1
    29    28    31    1
    30    28    30    1
    31    20    25   ar
    32    20    18    1
    33     1    18    1
    34    18    19    2
@<TRIPOS>MOLECULE
./../dock_file/temp/cc5835d65acf9ed32aae84e485348313/Camostat_Ligand_CID_2536:hmTMPRSS2:20230411234231/Camostat_Ligand_CID_2536:hmTMPRSS2_out_1.pdbqt
 33 34 0 0 0
SMALL
GASTEIGER

@<TRIPOS>ATOM
      1  O         -6.0900   18.9370    9.3620 O.3     1  LIG1       -0.2750
      2  C         -5.9800   17.8400    8.5660 C.ar    1  LIG1        0.0790
      3  C         -6.8460   17.6720    7.4840 C.ar    1  LIG1        0.0380
      4  C         -6.7320   16.5470    6.6680 C.ar    1  LIG1        0.0100
      5  C         -5.7530   15.5890    6.9320 C.ar    1  LIG1       -0.0490
      6  C         -4.8880   15.7570    8.0130 C.ar    1  LIG1        0.0100
      7  C         -5.0010   16.8820    8.8300 C.ar    1  LIG1        0.0380
      8  C         -5.6300   14.3740    6.0500 C.3     1  LIG1        0.1490
      9  C         -4.2770   14.2610    5.3880 C.2     1  LIG1        0.2630
     10  O         -3.8510   15.0050    4.5160 O.2     1  LIG1       -0.2650
     11  O         -3.5950   13.1910    5.9170 O.3     1  LIG1       -0.3120
     12  C         -2.2770   13.4460    6.3540 C.3     1  LIG1        0.2810
     13  C         -2.2340   13.4480    7.8680 C.2     1  LIG1        0.2430
     14  O         -3.0630   12.7750    8.4860 O.2     1  LIG1       -0.2710
     15  N         -1.2410   14.2130    8.4820 N.am    1  LIG1       -0.3590
     16  C         -0.2330   15.0090    7.7850 C.3     1  LIG1        0.1520
     17  C         -1.1540   14.2400    9.9360 C.3     1  LIG1        0.1520
     18  C         -5.0340   19.8430    9.2430 C.2     1  LIG1        0.2980
     19  O         -4.5800   20.2740    8.1930 O.2     1  LIG1       -0.2590
     20  C         -4.4980   20.2200   10.5750 C.ar    1  LIG1        0.0400
     21  C         -4.6560   19.3580   11.6600 C.ar    1  LIG1        0.0200
     22  C         -4.1530   19.7120   12.9110 C.ar    1  LIG1        0.0330
     23  C         -3.4910   20.9290   13.0790 C.ar    1  LIG1        0.0750
     24  C         -3.3320   21.7910   11.9940 C.ar    1  LIG1        0.0330
     25  C         -3.8360   21.4370   10.7420 C.ar    1  LIG1        0.0200
     26  N         -2.9860   21.2840   14.3340 N.pl3   1  LIG1       -0.0660
     27  C         -3.7550   21.9490   15.1620 C.cat   1  LIG1        0.6920
     28  N         -5.0520   22.3620   14.9470 N.pl3   1  LIG1       -0.2330
     29  N         -3.2970   22.3170   16.4050 N.pl3   1  LIG1       -0.2330
     30  H         -5.4970   22.1610   14.0930 H       1  LIG1        0.1740
     31  H         -5.5330   22.8590   15.6480 H       1  LIG1        0.1740
     32  H         -2.3830   22.0800   16.6820 H       1  LIG1        0.1740
     33  H         -3.8840   22.8160   17.0180 H       1  LIG1        0.1740
@<TRIPOS>BOND
     1    10     9    2
     2     9    11    1
     3     9     8    1
     4    11    12    1
     5     8     5    1
     6    12    13    1
     7     4     5   ar
     8     4     3   ar
     9     5     6   ar
    10     3     2   ar
    11    16    15    1
    12    13    15   am
    13    13    14    2
    14     6     7   ar
    15    19    18    2
    16    15    17    1
    17     2     7   ar
    18     2     1    1
    19    18     1    1
    20    18    20    1
    21    20    25   ar
    22    20    21   ar
    23    25    24   ar
    24    21    22   ar
    25    24    23   ar
    26    22    23   ar
    27    23    26    1
    28    30    28    1
    29    26    27    2
    30    28    27    1
    31    28    31    1
    32    27    29    1
    33    29    32    1
    34    29    33    1
