@<TRIPOS>MOLECULE
./../dock_file/temp/cc5835d65acf9ed32aae84e485348313/Camostat_Ligand_CID_2536:hmTMPRSS2:20230411234231/Camostat_Ligand_CID_2536:hmTMPRSS2_out_3.pdbqt
 33 34 0 0 0
SMALL
GASTEIGER

@<TRIPOS>ATOM
      1  O        -13.6150   -8.7440   15.7050 O.3     1  LIG1       -0.2750
      2  C        -13.1400   -7.4860   15.4940 C.ar    1  LIG1        0.0790
      3  C        -13.5180   -6.4450   16.3420 C.ar    1  LIG1        0.0380
      4  C        -13.0320   -5.1570   16.1250 C.ar    1  LIG1        0.0100
      5  C        -12.1640   -4.9080   15.0610 C.ar    1  LIG1       -0.0490
      6  C        -11.7860   -5.9490   14.2130 C.ar    1  LIG1        0.0100
      7  C        -12.2730   -7.2380   14.4300 C.ar    1  LIG1        0.0380
      8  C        -11.6380   -3.5160   14.8260 C.3     1  LIG1        0.1490
      9  C        -10.3680   -3.2290   15.5930 C.2     1  LIG1        0.2630
     10  O         -9.6320   -2.2700   15.4110 O.2     1  LIG1       -0.2650
     11  O        -10.1670   -4.2140   16.5320 O.3     1  LIG1       -0.3120
     12  C        -10.0280   -3.7820   17.8690 C.3     1  LIG1        0.2810
     13  C         -9.5170   -4.9240   18.7220 C.2     1  LIG1        0.2430
     14  O         -8.3470   -5.2910   18.5840 O.2     1  LIG1       -0.2710
     15  N        -10.4090   -5.4950   19.6320 N.am    1  LIG1       -0.3590
     16  C        -11.7950   -5.0790   19.8350 C.3     1  LIG1        0.1520
     17  C         -9.9610   -6.5910   20.4810 C.3     1  LIG1        0.1520
     18  C        -14.6380   -9.1250   14.8340 C.2     1  LIG1        0.2980
     19  O        -15.6480   -8.4810   14.5950 O.2     1  LIG1       -0.2590
     20  C        -14.3560  -10.4500   14.2250 C.ar    1  LIG1        0.0400
     21  C        -13.3240  -10.5860   13.2980 C.ar    1  LIG1        0.0200
     22  C        -13.0590  -11.8310   12.7270 C.ar    1  LIG1        0.0330
     23  C        -13.8260  -12.9400   13.0820 C.ar    1  LIG1        0.0750
     24  C        -14.8590  -12.8040   14.0100 C.ar    1  LIG1        0.0330
     25  C        -15.1240  -11.5590   14.5820 C.ar    1  LIG1        0.0200
     26  N        -13.5610  -14.1880   12.5090 N.pl3   1  LIG1       -0.0660
     27  C        -14.2630  -14.5710   11.4700 C.cat   1  LIG1        0.6920
     28  N        -15.2730  -13.8740   10.8430 N.pl3   1  LIG1       -0.2330
     29  N        -14.0330  -15.7900   10.8780 N.pl3   1  LIG1       -0.2330
     30  H        -15.5360  -12.9850   11.1720 H       1  LIG1        0.1740
     31  H        -15.7330  -14.2670   10.0660 H       1  LIG1        0.1740
     32  H        -13.3350  -16.3860   11.2320 H       1  LIG1        0.1740
     33  H        -14.5670  -16.0660   10.0980 H       1  LIG1        0.1740
@<TRIPOS>BOND
     1    31    28    1
     2    33    29    1
     3    28    30    1
     4    28    27    1
     5    29    32    1
     6    29    27    1
     7    27    26    2
     8    26    23    1
     9    22    23   ar
    10    22    21   ar
    11    23    24   ar
    12    21    20   ar
    13    24    25   ar
    14     6     7   ar
    15     6     5   ar
    16    20    25   ar
    17    20    18    1
    18     7     2   ar
    19    19    18    2
    20     8     5    1
    21     8     9    1
    22    18     1    1
    23     5     4   ar
    24    10     9    2
    25     2     1    1
    26     2     3   ar
    27     9    11    1
    28     4     3   ar
    29    11    12    1
    30    12    13    1
    31    14    13    2
    32    13    15   am
    33    15    16    1
    34    15    17    1
@<TRIPOS>MOLECULE
./../dock_file/temp/cc5835d65acf9ed32aae84e485348313/Camostat_Ligand_CID_2536:hmTMPRSS2:20230411234231/Camostat_Ligand_CID_2536:hmTMPRSS2_out_3.pdbqt
 33 34 0 0 0
SMALL
GASTEIGER

@<TRIPOS>ATOM
      1  O        -13.4130   -4.9350   16.2500 O.3     1  LIG1       -0.2750
      2  C        -13.4630   -6.0450   15.4650 C.ar    1  LIG1        0.0790
      3  C        -13.2080   -7.3020   16.0150 C.ar    1  LIG1        0.0380
      4  C        -13.2600   -8.4390   15.2100 C.ar    1  LIG1        0.0100
      5  C        -13.5670   -8.3210   13.8540 C.ar    1  LIG1       -0.0490
      6  C        -13.8220   -7.0640   13.3040 C.ar    1  LIG1        0.0100
      7  C        -13.7700   -5.9260   14.1100 C.ar    1  LIG1        0.0380
      8  C        -13.6230   -9.5490   12.9840 C.3     1  LIG1        0.1490
      9  C        -14.7300   -9.4940   11.9570 C.2     1  LIG1        0.2630
     10  O        -14.6090   -9.0990   10.8050 O.2     1  LIG1       -0.2650
     11  O        -15.8970   -9.9580   12.5150 O.3     1  LIG1       -0.3120
     12  C        -15.8160  -11.1910   13.1980 C.3     1  LIG1        0.2810
     13  C        -15.9380  -12.3310   12.2080 C.2     1  LIG1        0.2430
     14  O        -16.9370  -12.3850   11.4850 O.2     1  LIG1       -0.2710
     15  N        -14.8970  -13.2590   12.1650 N.am    1  LIG1       -0.3590
     16  C        -13.6930  -13.2210   12.9930 C.3     1  LIG1        0.1520
     17  C        -14.9650  -14.3690   11.2230 C.3     1  LIG1        0.1520
     18  C        -12.1630   -4.3110   16.2850 C.2     1  LIG1        0.2980
     19  O        -11.7740   -3.4520   15.5080 O.2     1  LIG1       -0.2590
     20  C        -11.3310   -4.8400   17.3950 C.ar    1  LIG1        0.0400
     21  C        -11.7320   -4.6510   18.7170 C.ar    1  LIG1        0.0200
     22  C        -10.9510   -5.1480   19.7610 C.ar    1  LIG1        0.0330
     23  C         -9.7680   -5.8320   19.4820 C.ar    1  LIG1        0.0750
     24  C         -9.3660   -6.0210   18.1590 C.ar    1  LIG1        0.0330
     25  C        -10.1470   -5.5240   17.1160 C.ar    1  LIG1        0.0200
     26  N         -8.9840   -6.3300   20.5280 N.pl3   1  LIG1       -0.0660
     27  C         -9.4470   -7.3230   21.2500 C.cat   1  LIG1        0.6920
     28  N        -10.6570   -7.9660   21.1060 N.pl3   1  LIG1       -0.2330
     29  N         -8.7080   -7.8410   22.2870 N.pl3   1  LIG1       -0.2330
     30  H        -11.2810   -7.6880   20.3980 H       1  LIG1        0.1740
     31  H        -10.8980   -8.7030   21.7130 H       1  LIG1        0.1740
     32  H         -7.8210   -7.4680   22.4950 H       1  LIG1        0.1740
     33  H         -9.0660   -8.5870   22.8220 H       1  LIG1        0.1740
@<TRIPOS>BOND
     1    10     9    2
     2    17    15    1
     3    14    13    2
     4     9    11    1
     5     9     8    1
     6    15    13   am
     7    15    16    1
     8    13    12    1
     9    11    12    1
    10     8     5    1
    11     6     5   ar
    12     6     7   ar
    13     5     4   ar
    14     7     2   ar
    15     4     3   ar
    16     2     3   ar
    17     2     1    1
    18    19    18    2
    19     1    18    1
    20    18    20    1
    21    25    20   ar
    22    25    24   ar
    23    20    21   ar
    24    24    23   ar
    25    21    22   ar
    26    23    22   ar
    27    23    26    1
    28    30    28    1
    29    26    27    2
    30    28    27    1
    31    28    31    1
    32    27    29    1
    33    29    32    1
    34    29    33    1
@<TRIPOS>MOLECULE
./../dock_file/temp/cc5835d65acf9ed32aae84e485348313/Camostat_Ligand_CID_2536:hmTMPRSS2:20230411234231/Camostat_Ligand_CID_2536:hmTMPRSS2_out_3.pdbqt
 33 34 0 0 0
SMALL
GASTEIGER

@<TRIPOS>ATOM
      1  O        -14.8770   -6.7390   13.6750 O.3     1  LIG1       -0.2750
      2  C        -14.4560   -8.0130   13.4490 C.ar    1  LIG1        0.0790
      3  C        -13.8260   -8.7320   14.4660 C.ar    1  LIG1        0.0380
      4  C        -13.3950  -10.0370   14.2330 C.ar    1  LIG1        0.0100
      5  C        -13.5950  -10.6260   12.9840 C.ar    1  LIG1       -0.0490
      6  C        -14.2250   -9.9070   11.9670 C.ar    1  LIG1        0.0100
      7  C        -14.6560   -8.6010   12.2000 C.ar    1  LIG1        0.0380
      8  C        -13.1290  -12.0360   12.7320 C.3     1  LIG1        0.1490
      9  C        -14.2560  -13.0430   12.7620 C.2     1  LIG1        0.2630
     10  O        -14.8020  -13.5240   11.7800 O.2     1  LIG1       -0.2650
     11  O        -14.5740  -13.3370   14.0670 O.3     1  LIG1       -0.3120
     12  C        -15.9350  -13.2170   14.4200 C.3     1  LIG1        0.2810
     13  C        -16.0690  -12.3240   15.6360 C.2     1  LIG1        0.2430
     14  O        -15.6470  -12.7310   16.7210 O.2     1  LIG1       -0.2710
     15  N        -16.6610  -11.0730   15.4530 N.am    1  LIG1       -0.3590
     16  C        -17.1590  -10.5500   14.1830 C.3     1  LIG1        0.1520
     17  C        -16.8040  -10.1750   16.5910 C.3     1  LIG1        0.1520
     18  C        -14.0530   -5.7550   13.1230 C.2     1  LIG1        0.2980
     19  O        -14.1510   -5.2940   11.9960 O.2     1  LIG1       -0.2590
     20  C        -13.0040   -5.3330   14.0860 C.ar    1  LIG1        0.0400
     21  C        -13.3630   -4.6940   15.2720 C.ar    1  LIG1        0.0200
     22  C        -12.3770   -4.2980   16.1770 C.ar    1  LIG1        0.0330
     23  C        -11.0330   -4.5410   15.8940 C.ar    1  LIG1        0.0750
     24  C        -10.6740   -5.1800   14.7070 C.ar    1  LIG1        0.0330
     25  C        -11.6590   -5.5750   13.8030 C.ar    1  LIG1        0.0200
     26  N        -10.0450   -4.1440   16.8010 N.pl3   1  LIG1       -0.0660
     27  C         -9.8170   -4.8880   17.8570 C.cat   1  LIG1        0.6920
     28  N        -10.4530   -6.0600   18.2040 N.pl3   1  LIG1       -0.2330
     29  N         -8.8550   -4.5330   18.7730 N.pl3   1  LIG1       -0.2330
     30  H        -11.1650   -6.4230   17.6300 H       1  LIG1        0.1740
     31  H        -10.1950   -6.5340   19.0290 H       1  LIG1        0.1740
     32  H         -8.3270   -3.7130   18.6390 H       1  LIG1        0.1740
     33  H         -8.6930   -5.1000   19.5610 H       1  LIG1        0.1740
@<TRIPOS>BOND
     1    10     9    2
     2     6     7   ar
     3     6     5   ar
     4    19    18    2
     5     7     2   ar
     6     8     9    1
     7     8     5    1
     8     9    11    1
     9     5     4   ar
    10    18     1    1
    11    18    20    1
    12     2     1    1
    13     2     3   ar
    14    25    20   ar
    15    25    24   ar
    16    11    12    1
    17    20    21   ar
    18    16    15    1
    19     4     3   ar
    20    12    13    1
    21    24    23   ar
    22    21    22   ar
    23    15    13   am
    24    15    17    1
    25    13    14    2
    26    23    22   ar
    27    23    26    1
    28    26    27    2
    29    30    28    1
    30    27    28    1
    31    27    29    1
    32    28    31    1
    33    32    29    1
    34    29    33    1
@<TRIPOS>MOLECULE
./../dock_file/temp/cc5835d65acf9ed32aae84e485348313/Camostat_Ligand_CID_2536:hmTMPRSS2:20230411234231/Camostat_Ligand_CID_2536:hmTMPRSS2_out_3.pdbqt
 33 34 0 0 0
SMALL
GASTEIGER

@<TRIPOS>ATOM
      1  O        -12.5480   -4.1140   15.8270 O.3     1  LIG1       -0.2750
      2  C        -12.8650   -5.4170   15.5960 C.ar    1  LIG1        0.0790
      3  C        -12.3560   -6.0710   14.4730 C.ar    1  LIG1        0.0380
      4  C        -12.6810   -7.4060   14.2370 C.ar    1  LIG1        0.0100
      5  C        -13.5150   -8.0890   15.1230 C.ar    1  LIG1       -0.0490
      6  C        -14.0240   -7.4350   16.2450 C.ar    1  LIG1        0.0100
      7  C        -13.6990   -6.0990   16.4820 C.ar    1  LIG1        0.0380
      8  C        -13.8660   -9.5310   14.8680 C.3     1  LIG1        0.1490
      9  C        -15.1460   -9.9560   15.5500 C.2     1  LIG1        0.2630
     10  O        -15.2160  -10.6040   16.5850 O.2     1  LIG1       -0.2650
     11  O        -16.2230   -9.4990   14.8290 O.3     1  LIG1       -0.3120
     12  C        -16.5130  -10.1930   13.6330 C.3     1  LIG1        0.2810
     13  C        -16.8330   -9.2010   12.5340 C.2     1  LIG1        0.2430
     14  O        -17.9070   -8.5960   12.5750 O.2     1  LIG1       -0.2710
     15  N        -15.8770   -9.0220   11.5330 N.am    1  LIG1       -0.3590
     16  C        -14.5890   -9.7080   11.4590 C.3     1  LIG1        0.1520
     17  C        -16.1360   -8.0720   10.4580 C.3     1  LIG1        0.1520
     18  C        -11.1760   -3.8600   15.8970 C.2     1  LIG1        0.2980
     19  O        -10.5250   -3.2310   15.0760 O.2     1  LIG1       -0.2590
     20  C        -10.5790   -4.4730   17.1100 C.ar    1  LIG1        0.0400
     21  C        -11.0110   -4.0770   18.3760 C.ar    1  LIG1        0.0200
     22  C        -10.4500   -4.6540   19.5160 C.ar    1  LIG1        0.0330
     23  C         -9.4580   -5.6260   19.3900 C.ar    1  LIG1        0.0750
     24  C         -9.0260   -6.0220   18.1240 C.ar    1  LIG1        0.0330
     25  C         -9.5870   -5.4460   16.9840 C.ar    1  LIG1        0.0200
     26  N         -8.8960   -6.2040   20.5330 N.pl3   1  LIG1       -0.0660
     27  C         -9.5520   -7.1580   21.1490 C.cat   1  LIG1        0.6920
     28  N        -10.7760   -7.6880   20.8010 N.pl3   1  LIG1       -0.2330
     29  N         -9.0340   -7.7530   22.2750 N.pl3   1  LIG1       -0.2330
     30  H        -11.2540   -7.3470   20.0120 H       1  LIG1        0.1740
     31  H        -11.1730   -8.4070   21.3450 H       1  LIG1        0.1740
     32  H         -8.1620   -7.4640   22.6280 H       1  LIG1        0.1740
     33  H         -9.5370   -8.4690   22.7280 H       1  LIG1        0.1740
@<TRIPOS>BOND
     1    17    15    1
     2    16    15    1
     3    15    13   am
     4    13    14    2
     5    13    12    1
     6    12    11    1
     7     4     3   ar
     8     4     5   ar
     9     3     2   ar
    10    11     9    1
    11     8     5    1
    12     8     9    1
    13    19    18    2
    14     5     6   ar
    15     9    10    2
    16     2     1    1
    17     2     7   ar
    18     1    18    1
    19    18    20    1
    20     6     7   ar
    21    25    20   ar
    22    25    24   ar
    23    20    21   ar
    24    24    23   ar
    25    21    22   ar
    26    23    22   ar
    27    23    26    1
    28    30    28    1
    29    26    27    2
    30    28    27    1
    31    28    31    1
    32    27    29    1
    33    29    32    1
    34    29    33    1
@<TRIPOS>MOLECULE
./../dock_file/temp/cc5835d65acf9ed32aae84e485348313/Camostat_Ligand_CID_2536:hmTMPRSS2:20230411234231/Camostat_Ligand_CID_2536:hmTMPRSS2_out_3.pdbqt
 33 34 0 0 0
SMALL
GASTEIGER

@<TRIPOS>ATOM
      1  O        -15.7210  -12.2420   13.5310 O.3     1  LIG1       -0.2750
      2  C        -14.9970  -11.1100   13.7450 C.ar    1  LIG1        0.0790
      3  C        -14.5630  -10.3430   12.6630 C.ar    1  LIG1        0.0380
      4  C        -13.8220   -9.1830   12.8830 C.ar    1  LIG1        0.0100
      5  C        -13.5140   -8.7880   14.1850 C.ar    1  LIG1       -0.0490
      6  C        -13.9480   -9.5550   15.2670 C.ar    1  LIG1        0.0100
      7  C        -14.6900  -10.7150   15.0470 C.ar    1  LIG1        0.0380
      8  C        -12.7130   -7.5340   14.4230 C.3     1  LIG1        0.1490
      9  C        -13.0310   -6.8740   15.7440 C.2     1  LIG1        0.2630
     10  O        -14.0950   -6.3420   16.0330 O.2     1  LIG1       -0.2650
     11  O        -11.9400   -6.9620   16.5760 O.3     1  LIG1       -0.3120
     12  C        -11.7730   -5.9070   17.5000 C.3     1  LIG1        0.2810
     13  C        -10.2970   -5.6200   17.6820 C.2     1  LIG1        0.2430
     14  O         -9.6810   -5.0720   16.7640 O.2     1  LIG1       -0.2710
     15  N         -9.7170   -5.9880   18.8970 N.am    1  LIG1       -0.3590
     16  C        -10.4150   -6.6240   20.0110 C.3     1  LIG1        0.1520
     17  C         -8.3010   -5.7240   19.1220 C.3     1  LIG1        0.1520
     18  C        -14.9590  -13.3460   13.1410 C.2     1  LIG1        0.2980
     19  O        -13.8150  -13.5840   13.4970 O.2     1  LIG1       -0.2590
     20  C        -15.7150  -14.2150   12.2040 C.ar    1  LIG1        0.0400
     21  C        -15.3140  -14.3210   10.8730 C.ar    1  LIG1        0.0200
     22  C        -16.0250  -15.1380    9.9930 C.ar    1  LIG1        0.0330
     23  C        -17.1370  -15.8480   10.4440 C.ar    1  LIG1        0.0750
     24  C        -17.5380  -15.7430   11.7760 C.ar    1  LIG1        0.0330
     25  C        -16.8280  -14.9260   12.6560 C.ar    1  LIG1        0.0200
     26  N        -17.8490  -16.6670    9.5620 N.pl3   1  LIG1       -0.0660
     27  C        -18.9570  -16.2110    9.0290 C.cat   1  LIG1        0.6920
     28  N        -19.5360  -14.9780    9.2340 N.pl3   1  LIG1       -0.2330
     29  N        -19.6870  -16.9850    8.1570 N.pl3   1  LIG1       -0.2330
     30  H        -19.1110  -14.3290    9.8390 H       1  LIG1        0.1740
     31  H        -20.3770  -14.7470    8.7750 H       1  LIG1        0.1740
     32  H        -19.3790  -17.8900    7.9260 H       1  LIG1        0.1740
     33  H        -20.5170  -16.6310    7.7630 H       1  LIG1        0.1740
@<TRIPOS>BOND
     1    33    29    1
     2    32    29    1
     3    29    27    1
     4    31    28    1
     5    27    28    1
     6    27    26    2
     7    28    30    1
     8    26    23    1
     9    22    23   ar
    10    22    21   ar
    11    23    24   ar
    12    21    20   ar
    13    24    25   ar
    14    20    25   ar
    15    20    18    1
    16     3     4   ar
    17     3     2   ar
    18     4     5   ar
    19    18    19    2
    20    18     1    1
    21     1     2    1
    22     2     7   ar
    23     5     8    1
    24     5     6   ar
    25     8     9    1
    26     7     6   ar
    27     9    10    2
    28     9    11    1
    29    11    12    1
    30    14    13    2
    31    12    13    1
    32    13    15   am
    33    15    17    1
    34    15    16    1
@<TRIPOS>MOLECULE
./../dock_file/temp/cc5835d65acf9ed32aae84e485348313/Camostat_Ligand_CID_2536:hmTMPRSS2:20230411234231/Camostat_Ligand_CID_2536:hmTMPRSS2_out_3.pdbqt
 33 34 0 0 0
SMALL
GASTEIGER

@<TRIPOS>ATOM
      1  O        -15.4150   -7.1000   14.7180 O.3     1  LIG1       -0.2750
      2  C        -14.8570   -8.2490   14.2500 C.ar    1  LIG1        0.0790
      3  C        -14.4770   -8.3450   12.9110 C.ar    1  LIG1        0.0380
      4  C        -13.9040   -9.5230   12.4320 C.ar    1  LIG1        0.0100
      5  C        -13.7100  -10.6050   13.2910 C.ar    1  LIG1       -0.0490
      6  C        -14.0900  -10.5080   14.6300 C.ar    1  LIG1        0.0100
      7  C        -14.6630   -9.3300   15.1100 C.ar    1  LIG1        0.0380
      8  C        -13.0920  -11.8770   12.7730 C.3     1  LIG1        0.1490
      9  C        -14.0660  -13.0310   12.7320 C.2     1  LIG1        0.2630
     10  O        -13.9720  -14.0620   13.3830 O.2     1  LIG1       -0.2650
     11  O        -15.0790  -12.7450   11.8480 O.3     1  LIG1       -0.3120
     12  C        -16.3910  -13.0130   12.2940 C.3     1  LIG1        0.2810
     13  C        -17.3330  -13.0560   11.1090 C.2     1  LIG1        0.2430
     14  O        -17.6920  -11.9920   10.5970 O.2     1  LIG1       -0.2710
     15  N        -17.7380  -14.3120   10.6550 N.am    1  LIG1       -0.3590
     16  C        -17.3240  -15.5920   11.2240 C.3     1  LIG1        0.1520
     17  C        -18.6380  -14.4040    9.5120 C.3     1  LIG1        0.1520
     18  C        -14.6340   -5.9590   14.5220 C.2     1  LIG1        0.2980
     19  O        -14.8540   -5.0760   13.7070 O.2     1  LIG1       -0.2590
     20  C        -13.4610   -5.9500   15.4320 C.ar    1  LIG1        0.0400
     21  C        -12.1730   -6.0670   14.9110 C.ar    1  LIG1        0.0200
     22  C        -11.0710   -6.0590   15.7670 C.ar    1  LIG1        0.0330
     23  C        -11.2570   -5.9340   17.1430 C.ar    1  LIG1        0.0750
     24  C        -12.5460   -5.8170   17.6650 C.ar    1  LIG1        0.0330
     25  C        -13.6470   -5.8250   16.8100 C.ar    1  LIG1        0.0200
     26  N        -10.1520   -5.9250   18.0010 N.pl3   1  LIG1       -0.0660
     27  C         -9.5390   -4.7890   18.2340 C.cat   1  LIG1        0.6920
     28  N         -9.8560   -3.5500   17.7220 N.pl3   1  LIG1       -0.2330
     29  N         -8.4500   -4.7380   19.0710 N.pl3   1  LIG1       -0.2330
     30  H        -10.6180   -3.4510   17.1070 H       1  LIG1        0.1740
     31  H         -9.3180   -2.7630   17.9710 H       1  LIG1        0.1740
     32  H         -8.1220   -5.5590   19.5030 H       1  LIG1        0.1740
     33  H         -7.9980   -3.8790   19.2390 H       1  LIG1        0.1740
@<TRIPOS>BOND
     1    17    15    1
     2    14    13    2
     3    15    13   am
     4    15    16    1
     5    13    12    1
     6    11    12    1
     7    11     9    1
     8     4     3   ar
     9     4     5   ar
    10     9     8    1
    11     9    10    2
    12     8     5    1
    13     3     2   ar
    14     5     6   ar
    15    19    18    2
    16     2     1    1
    17     2     7   ar
    18    18     1    1
    19    18    20    1
    20     6     7   ar
    21    21    20   ar
    22    21    22   ar
    23    20    25   ar
    24    22    23   ar
    25    25    24   ar
    26    30    28    1
    27    23    24   ar
    28    23    26    1
    29    28    31    1
    30    28    27    1
    31    26    27    2
    32    27    29    1
    33    29    33    1
    34    29    32    1
@<TRIPOS>MOLECULE
./../dock_file/temp/cc5835d65acf9ed32aae84e485348313/Camostat_Ligand_CID_2536:hmTMPRSS2:20230411234231/Camostat_Ligand_CID_2536:hmTMPRSS2_out_3.pdbqt
 33 34 0 0 0
SMALL
GASTEIGER

@<TRIPOS>ATOM
      1  O        -14.7050   -5.4210   15.1460 O.3     1  LIG1       -0.2750
      2  C        -14.5140   -6.7220   14.7960 C.ar    1  LIG1        0.0790
      3  C        -14.5780   -7.7230   15.7650 C.ar    1  LIG1        0.0380
      4  C        -14.3820   -9.0560   15.4050 C.ar    1  LIG1        0.0100
      5  C        -14.1220   -9.3890   14.0750 C.ar    1  LIG1       -0.0490
      6  C        -14.0580   -8.3870   13.1060 C.ar    1  LIG1        0.0100
      7  C        -14.2540   -7.0540   13.4660 C.ar    1  LIG1        0.0380
      8  C        -13.9100  -10.8290   13.6860 C.3     1  LIG1        0.1490
      9  C        -15.0760  -11.4100   12.9200 C.2     1  LIG1        0.2630
     10  O        -15.2210  -11.3620   11.7070 O.2     1  LIG1       -0.2650
     11  O        -15.9520  -12.0030   13.7980 O.3     1  LIG1       -0.3120
     12  C        -15.4600  -13.1170   14.5130 C.3     1  LIG1        0.2810
     13  C        -16.1420  -13.1960   15.8630 C.2     1  LIG1        0.2430
     14  O        -15.6800  -12.5410   16.8010 O.2     1  LIG1       -0.2710
     15  N        -17.2710  -14.0100   15.9650 N.am    1  LIG1       -0.3590
     16  C        -17.8560  -14.7890   14.8760 C.3     1  LIG1        0.1520
     17  C        -17.9670  -14.1120   17.2420 C.3     1  LIG1        0.1520
     18  C        -13.5980   -4.5980   14.9260 C.2     1  LIG1        0.2980
     19  O        -13.4580   -3.8290   13.9880 O.2     1  LIG1       -0.2590
     20  C        -12.5750   -4.7810   15.9870 C.ar    1  LIG1        0.0400
     21  C        -11.3940   -5.4670   15.7050 C.ar    1  LIG1        0.0200
     22  C        -10.4330   -5.6380   16.7010 C.ar    1  LIG1        0.0330
     23  C        -10.6530   -5.1260   17.9790 C.ar    1  LIG1        0.0750
     24  C        -11.8340   -4.4400   18.2620 C.ar    1  LIG1        0.0330
     25  C        -12.7960   -4.2680   17.2660 C.ar    1  LIG1        0.0200
     26  N         -9.6890   -5.2980   18.9780 N.pl3   1  LIG1       -0.0660
     27  C         -9.9380   -6.1270   19.9630 C.cat   1  LIG1        0.6920
     28  N        -11.0750   -6.8830   20.1510 N.pl3   1  LIG1       -0.2330
     29  N         -9.0170   -6.3250   20.9650 N.pl3   1  LIG1       -0.2330
     30  H        -11.8130   -6.8310   19.5020 H       1  LIG1        0.1740
     31  H        -11.1500   -7.4740   20.9350 H       1  LIG1        0.1740
     32  H         -8.1590   -5.8440   20.9470 H       1  LIG1        0.1740
     33  H         -9.2160   -6.9510   21.6990 H       1  LIG1        0.1740
@<TRIPOS>BOND
     1    10     9    2
     2     9     8    1
     3     9    11    1
     4     6     7   ar
     5     6     5   ar
     6     7     2   ar
     7     8     5    1
     8    11    12    1
     9    19    18    2
    10     5     4   ar
    11    12    13    1
    12     2     1    1
    13     2     3   ar
    14    16    15    1
    15    18     1    1
    16    18    20    1
    17     4     3   ar
    18    21    20   ar
    19    21    22   ar
    20    13    15   am
    21    13    14    2
    22    15    17    1
    23    20    25   ar
    24    22    23   ar
    25    25    24   ar
    26    23    24   ar
    27    23    26    1
    28    26    27    2
    29    30    28    1
    30    27    28    1
    31    27    29    1
    32    28    31    1
    33    32    29    1
    34    29    33    1
@<TRIPOS>MOLECULE
./../dock_file/temp/cc5835d65acf9ed32aae84e485348313/Camostat_Ligand_CID_2536:hmTMPRSS2:20230411234231/Camostat_Ligand_CID_2536:hmTMPRSS2_out_3.pdbqt
 33 34 0 0 0
SMALL
GASTEIGER

@<TRIPOS>ATOM
      1  O        -13.7910   -6.2210   13.5850 O.3     1  LIG1       -0.2750
      2  C        -14.1450   -7.4630   14.0130 C.ar    1  LIG1        0.0790
      3  C        -13.3320   -8.5600   13.7250 C.ar    1  LIG1        0.0380
      4  C        -13.6960   -9.8320   14.1650 C.ar    1  LIG1        0.0100
      5  C        -14.8720  -10.0090   14.8940 C.ar    1  LIG1       -0.0490
      6  C        -15.6850   -8.9120   15.1820 C.ar    1  LIG1        0.0100
      7  C        -15.3210   -7.6390   14.7420 C.ar    1  LIG1        0.0380
      8  C        -15.2650  -11.3840   15.3700 C.3     1  LIG1        0.1490
      9  C        -16.4360  -11.9580   14.6070 C.2     1  LIG1        0.2630
     10  O        -16.6000  -11.8820   13.3980 O.2     1  LIG1       -0.2650
     11  O        -17.2910  -12.5830   15.4830 O.3     1  LIG1       -0.3120
     12  C        -17.2600  -13.9950   15.4860 C.3     1  LIG1        0.2810
     13  C        -16.8480  -14.4920   16.8560 C.2     1  LIG1        0.2430
     14  O        -15.7040  -14.2540   17.2540 O.2     1  LIG1       -0.2710
     15  N        -17.8000  -15.1900   17.6000 N.am    1  LIG1       -0.3590
     16  C        -19.1670  -15.4770   17.1690 C.3     1  LIG1        0.1520
     17  C        -17.4530  -15.6810   18.9270 C.3     1  LIG1        0.1520
     18  C        -13.8300   -5.2380   14.5760 C.2     1  LIG1        0.2980
     19  O        -14.5840   -4.2770   14.5970 O.2     1  LIG1       -0.2590
     20  C        -12.8090   -5.4930   15.6240 C.ar    1  LIG1        0.0400
     21  C        -13.1800   -5.5150   16.9680 C.ar    1  LIG1        0.0200
     22  C        -12.2210   -5.7550   17.9520 C.ar    1  LIG1        0.0330
     23  C        -10.8910   -5.9720   17.5920 C.ar    1  LIG1        0.0750
     24  C        -10.5200   -5.9500   16.2470 C.ar    1  LIG1        0.0330
     25  C        -11.4790   -5.7100   15.2630 C.ar    1  LIG1        0.0200
     26  N         -9.9290   -6.2130   18.5790 N.pl3   1  LIG1       -0.0660
     27  C         -9.1050   -5.2470   18.9100 C.cat   1  LIG1        0.6920
     28  N         -9.0620   -3.9720   18.3900 N.pl3   1  LIG1       -0.2330
     29  N         -8.1460   -5.4430   19.8750 N.pl3   1  LIG1       -0.2330
     30  H         -9.6980   -3.7050   17.6880 H       1  LIG1        0.1740
     31  H         -8.3930   -3.3290   18.7190 H       1  LIG1        0.1740
     32  H         -8.0720   -6.3140   20.3270 H       1  LIG1        0.1740
     33  H         -7.5340   -4.7100   20.1150 H       1  LIG1        0.1740
@<TRIPOS>BOND
     1    10     9    2
     2     1     2    1
     3     1    18    1
     4     3     2   ar
     5     3     4   ar
     6     2     7   ar
     7     4     5   ar
     8    18    19    2
     9    18    20    1
    10     9     8    1
    11     9    11    1
    12     7     6   ar
    13     5     6   ar
    14     5     8    1
    15    25    20   ar
    16    25    24   ar
    17    11    12    1
    18    12    13    1
    19    20    21   ar
    20    24    23   ar
    21    13    14    2
    22    13    15   am
    23    21    22   ar
    24    16    15    1
    25    23    22   ar
    26    23    26    1
    27    15    17    1
    28    30    28    1
    29    28    31    1
    30    28    27    1
    31    26    27    2
    32    27    29    1
    33    29    33    1
    34    29    32    1
@<TRIPOS>MOLECULE
./../dock_file/temp/cc5835d65acf9ed32aae84e485348313/Camostat_Ligand_CID_2536:hmTMPRSS2:20230411234231/Camostat_Ligand_CID_2536:hmTMPRSS2_out_3.pdbqt
 33 34 0 0 0
SMALL
GASTEIGER

@<TRIPOS>ATOM
      1  O        -14.8480   -5.4010   14.6520 O.3     1  LIG1       -0.2750
      2  C        -14.6270   -6.7350   14.4950 C.ar    1  LIG1        0.0790
      3  C        -15.0570   -7.6340   15.4710 C.ar    1  LIG1        0.0380
      4  C        -14.8310   -9.0000   15.3090 C.ar    1  LIG1        0.0100
      5  C        -14.1750   -9.4690   14.1700 C.ar    1  LIG1       -0.0490
      6  C        -13.7460   -8.5690   13.1940 C.ar    1  LIG1        0.0100
      7  C        -13.9720   -7.2020   13.3560 C.ar    1  LIG1        0.0380
      8  C        -13.9310  -10.9450   13.9940 C.3     1  LIG1        0.1490
      9  C        -14.4110  -11.4670   12.6610 C.2     1  LIG1        0.2630
     10  O        -13.6990  -11.7130   11.6980 O.2     1  LIG1       -0.2650
     11  O        -15.7760  -11.6260   12.6950 O.3     1  LIG1       -0.3120
     12  C        -16.4980  -11.0540   11.6250 C.3     1  LIG1        0.2810
     13  C        -17.0010   -9.6830   12.0260 C.2     1  LIG1        0.2430
     14  O        -17.6570   -9.5720   13.0650 O.2     1  LIG1       -0.2710
     15  N        -16.6820   -8.6120   11.1900 N.am    1  LIG1       -0.3590
     16  C        -15.8970   -8.7020    9.9610 C.3     1  LIG1        0.1520
     17  C        -17.1360   -7.2720   11.5380 C.3     1  LIG1        0.1520
     18  C        -13.6850   -4.6300   14.7220 C.2     1  LIG1        0.2980
     19  O        -13.3960   -3.7070   13.9770 O.2     1  LIG1       -0.2590
     20  C        -12.8070   -5.0860   15.8300 C.ar    1  LIG1        0.0400
     21  C        -13.2140   -4.9260   17.1540 C.ar    1  LIG1        0.0200
     22  C        -12.3890   -5.3550   18.1940 C.ar    1  LIG1        0.0330
     23  C        -11.1570   -5.9430   17.9100 C.ar    1  LIG1        0.0750
     24  C        -10.7490   -6.1030   16.5860 C.ar    1  LIG1        0.0330
     25  C        -11.5740   -5.6740   15.5460 C.ar    1  LIG1        0.0200
     26  N        -10.3300   -6.3720   18.9540 N.pl3   1  LIG1       -0.0660
     27  C         -9.3060   -5.6290   19.2980 C.cat   1  LIG1        0.6920
     28  N         -8.9220   -4.4270   18.7420 N.pl3   1  LIG1       -0.2330
     29  N         -8.4690   -6.0150   20.3180 N.pl3   1  LIG1       -0.2330
     30  H         -9.4400   -4.0410   18.0000 H       1  LIG1        0.1740
     31  H         -8.1290   -3.9570   19.0870 H       1  LIG1        0.1740
     32  H         -8.6350   -6.8570   20.7990 H       1  LIG1        0.1740
     33  H         -7.7040   -5.4480   20.5680 H       1  LIG1        0.1740
@<TRIPOS>BOND
     1    16    15    1
     2    15    17    1
     3    15    13   am
     4    12    13    1
     5    12    11    1
     6    10     9    2
     7    13    14    2
     8     9    11    1
     9     9     8    1
    10     6     7   ar
    11     6     5   ar
    12     7     2   ar
    13    19    18    2
    14     8     5    1
    15     5     4   ar
    16     2     1    1
    17     2     3   ar
    18     1    18    1
    19    18    20    1
    20     4     3   ar
    21    25    20   ar
    22    25    24   ar
    23    20    21   ar
    24    24    23   ar
    25    21    22   ar
    26    23    22   ar
    27    23    26    1
    28    30    28    1
    29    28    31    1
    30    28    27    1
    31    26    27    2
    32    27    29    1
    33    29    33    1
    34    29    32    1
