@<TRIPOS>MOLECULE
./../dock_file/temp/cc5835d65acf9ed32aae84e485348313/Camostat_Ligand_CID_2536:hmTMPRSS2:20230411234231/Camostat_Ligand_CID_2536:hmTMPRSS2_out_5.pdbqt
 33 34 0 0 0
SMALL
GASTEIGER

@<TRIPOS>ATOM
      1  O          6.3570   -0.6530   32.7090 O.3     1  LIG1       -0.2750
      2  C          5.4710   -1.5920   33.1390 C.ar    1  LIG1        0.0790
      3  C          4.2730   -1.7880   32.4510 C.ar    1  LIG1        0.0380
      4  C          3.3660   -2.7500   32.8920 C.ar    1  LIG1        0.0100
      5  C          3.6550   -3.5180   34.0200 C.ar    1  LIG1       -0.0490
      6  C          4.8530   -3.3210   34.7080 C.ar    1  LIG1        0.0100
      7  C          5.7610   -2.3590   34.2670 C.ar    1  LIG1        0.0380
      8  C          2.6750   -4.5580   34.4970 C.3     1  LIG1        0.1490
      9  C          1.4970   -4.7270   33.5670 C.2     1  LIG1        0.2630
     10  O          0.6090   -3.9040   33.3910 O.2     1  LIG1       -0.2650
     11  O          1.5750   -5.9500   32.9440 O.3     1  LIG1       -0.3120
     12  C          1.3630   -7.0810   33.7630 C.3     1  LIG1        0.2810
     13  C         -0.1160   -7.3990   33.8190 C.2     1  LIG1        0.2430
     14  O         -0.6940   -7.7240   32.7780 O.2     1  LIG1       -0.2710
     15  N         -0.7440   -7.3140   35.0630 N.am    1  LIG1       -0.3590
     16  C         -0.0920   -6.9480   36.3180 C.3     1  LIG1        0.1520
     17  C         -2.1650   -7.6190   35.1690 C.3     1  LIG1        0.1520
     18  C          6.8720   -0.8900   31.4320 C.2     1  LIG1        0.2980
     19  O          6.5150   -0.3340   30.4040 O.2     1  LIG1       -0.2590
     20  C          7.9230   -1.9390   31.4650 C.ar    1  LIG1        0.0400
     21  C          9.2410   -1.5950   31.7640 C.ar    1  LIG1        0.0200
     22  C         10.2290   -2.5800   31.7960 C.ar    1  LIG1        0.0330
     23  C          9.8980   -3.9080   31.5280 C.ar    1  LIG1        0.0750
     24  C          8.5800   -4.2520   31.2290 C.ar    1  LIG1        0.0330
     25  C          7.5920   -3.2670   31.1970 C.ar    1  LIG1        0.0200
     26  N         10.8890   -4.8960   31.5600 N.pl3   1  LIG1       -0.0660
     27  C         11.5110   -5.2050   30.4480 C.cat   1  LIG1        0.6920
     28  N         11.3080   -4.6610   29.1980 N.pl3   1  LIG1       -0.2330
     29  N         12.4910   -6.1700   30.4370 N.pl3   1  LIG1       -0.2330
     30  H         10.6310   -3.9580   29.0720 H       1  LIG1        0.1740
     31  H         11.8390   -4.9770   28.4320 H       1  LIG1        0.1740
     32  H         12.7320   -6.6360   31.2690 H       1  LIG1        0.1740
     33  H         12.9510   -6.3930   29.5950 H       1  LIG1        0.1740
@<TRIPOS>BOND
     1    31    28    1
     2    30    28    1
     3    28    27    1
     4    33    29    1
     5    19    18    2
     6    29    27    1
     7    29    32    1
     8    27    26    2
     9    25    24   ar
    10    25    20   ar
    11    24    23   ar
    12    18    20    1
    13    18     1    1
    14    20    21   ar
    15    23    26    1
    16    23    22   ar
    17    21    22   ar
    18     3     4   ar
    19     3     2   ar
    20     1     2    1
    21    14    13    2
    22     4     5   ar
    23    11     9    1
    24    11    12    1
    25     2     7   ar
    26    10     9    2
    27     9     8    1
    28    12    13    1
    29    13    15   am
    30     5     8    1
    31     5     6   ar
    32     7     6   ar
    33    15    17    1
    34    15    16    1
@<TRIPOS>MOLECULE
./../dock_file/temp/cc5835d65acf9ed32aae84e485348313/Camostat_Ligand_CID_2536:hmTMPRSS2:20230411234231/Camostat_Ligand_CID_2536:hmTMPRSS2_out_5.pdbqt
 33 34 0 0 0
SMALL
GASTEIGER

@<TRIPOS>ATOM
      1  O          9.7760   -8.8530   32.6810 O.3     1  LIG1       -0.2750
      2  C          9.4540   -7.5900   32.2870 C.ar    1  LIG1        0.0790
      3  C          9.5250   -7.2400   30.9390 C.ar    1  LIG1        0.0380
      4  C          9.1950   -5.9470   30.5360 C.ar    1  LIG1        0.0100
      5  C          8.7920   -5.0030   31.4810 C.ar    1  LIG1       -0.0490
      6  C          8.7210   -5.3530   32.8300 C.ar    1  LIG1        0.0100
      7  C          9.0520   -6.6470   33.2330 C.ar    1  LIG1        0.0380
      8  C          8.4360   -3.6050   31.0460 C.3     1  LIG1        0.1490
      9  C          9.4250   -2.5680   31.5250 C.2     1  LIG1        0.2630
     10  O         10.6230   -2.7530   31.6840 O.2     1  LIG1       -0.2650
     11  O          8.7700   -1.3810   31.7540 O.3     1  LIG1       -0.3120
     12  C          7.6930   -1.4280   32.6660 C.3     1  LIG1        0.2810
     13  C          6.4270   -0.9540   31.9830 C.2     1  LIG1        0.2430
     14  O          6.5130   -0.0850   31.1100 O.2     1  LIG1       -0.2710
     15  N          5.2250   -1.5410   32.3790 N.am    1  LIG1       -0.3590
     16  C          5.0850   -2.5800   33.3960 C.3     1  LIG1        0.1520
     17  C          3.9810   -1.1230   31.7450 C.3     1  LIG1        0.1520
     18  C          8.8500   -9.8270   32.3000 C.2     1  LIG1        0.2980
     19  O          7.6530   -9.8070   32.5430 O.2     1  LIG1       -0.2590
     20  C          9.5110  -10.9310   31.5580 C.ar    1  LIG1        0.0400
     21  C          9.7140  -10.8230   30.1830 C.ar    1  LIG1        0.0200
     22  C         10.3350  -11.8600   29.4860 C.ar    1  LIG1        0.0330
     23  C         10.7510  -13.0060   30.1650 C.ar    1  LIG1        0.0750
     24  C         10.5470  -13.1140   31.5400 C.ar    1  LIG1        0.0330
     25  C          9.9270  -12.0770   32.2370 C.ar    1  LIG1        0.0200
     26  N         11.3730  -14.0460   29.4660 N.pl3   1  LIG1       -0.0660
     27  C         12.6710  -13.9990   29.2830 C.cat   1  LIG1        0.6920
     28  N         13.5390  -13.0170   29.7090 N.pl3   1  LIG1       -0.2330
     29  N         13.3210  -15.0010   28.6020 N.pl3   1  LIG1       -0.2330
     30  H         13.1980  -12.2410   30.2090 H       1  LIG1        0.1740
     31  H         14.5010  -13.0910   29.5100 H       1  LIG1        0.1740
     32  H         12.8120  -15.7640   28.2460 H       1  LIG1        0.1740
     33  H         14.2960  -14.9550   28.4720 H       1  LIG1        0.1740
@<TRIPOS>BOND
     1    32    29    1
     2    33    29    1
     3    29    27    1
     4    27    26    2
     5    27    28    1
     6    26    23    1
     7    22    23   ar
     8    22    21   ar
     9    31    28    1
    10    28    30    1
    11    23    24   ar
    12    21    20   ar
    13     4     3   ar
    14     4     5   ar
    15     3     2   ar
    16     8     5    1
    17     8     9    1
    18    14    13    2
    19     5     6   ar
    20     9    10    2
    21     9    11    1
    22    24    25   ar
    23    20    25   ar
    24    20    18    1
    25    17    15    1
    26    11    12    1
    27    13    15   am
    28    13    12    1
    29     2     1    1
    30     2     7   ar
    31    18    19    2
    32    18     1    1
    33    15    16    1
    34     6     7   ar
@<TRIPOS>MOLECULE
./../dock_file/temp/cc5835d65acf9ed32aae84e485348313/Camostat_Ligand_CID_2536:hmTMPRSS2:20230411234231/Camostat_Ligand_CID_2536:hmTMPRSS2_out_5.pdbqt
 33 34 0 0 0
SMALL
GASTEIGER

@<TRIPOS>ATOM
      1  O         13.8500   -5.0050   28.0230 O.3     1  LIG1       -0.2750
      2  C         12.7330   -4.7510   28.7580 C.ar    1  LIG1        0.0790
      3  C         12.5580   -5.3640   29.9980 C.ar    1  LIG1        0.0380
      4  C         11.4130   -5.1030   30.7500 C.ar    1  LIG1        0.0100
      5  C         10.4430   -4.2270   30.2630 C.ar    1  LIG1       -0.0490
      6  C         10.6180   -3.6140   29.0220 C.ar    1  LIG1        0.0100
      7  C         11.7630   -3.8750   28.2700 C.ar    1  LIG1        0.0380
      8  C          9.2060   -3.9450   31.0750 C.3     1  LIG1        0.1490
      9  C          9.4050   -2.8410   32.0870 C.2     1  LIG1        0.2630
     10  O         10.0640   -2.9310   33.1140 O.2     1  LIG1       -0.2650
     11  O          8.7310   -1.7150   31.6770 O.3     1  LIG1       -0.3120
     12  C          7.4600   -1.9240   31.0990 C.3     1  LIG1        0.2810
     13  C          6.4410   -1.0270   31.7710 C.2     1  LIG1        0.2430
     14  O          6.2500    0.1020   31.3100 O.2     1  LIG1       -0.2710
     15  N          5.7650   -1.5390   32.8790 N.am    1  LIG1       -0.3590
     16  C          5.9540   -2.8740   33.4440 C.3     1  LIG1        0.1520
     17  C          4.7700   -0.7160   33.5540 C.3     1  LIG1        0.1520
     18  C         14.6510   -3.8850   27.7890 C.2     1  LIG1        0.2980
     19  O         15.0260   -3.0870   28.6340 O.2     1  LIG1       -0.2590
     20  C         14.9910   -3.7620   26.3480 C.ar    1  LIG1        0.0400
     21  C         14.1110   -3.1210   25.4770 C.ar    1  LIG1        0.0200
     22  C         14.4310   -3.0050   24.1240 C.ar    1  LIG1        0.0330
     23  C         15.6290   -3.5310   23.6420 C.ar    1  LIG1        0.0750
     24  C         16.5100   -4.1730   24.5140 C.ar    1  LIG1        0.0330
     25  C         16.1900   -4.2880   25.8670 C.ar    1  LIG1        0.0200
     26  N         15.9500   -3.4150   22.2850 N.pl3   1  LIG1       -0.0660
     27  C         15.7110   -4.4290   21.4890 C.cat   1  LIG1        0.6920
     28  N         15.1620   -5.6460   21.8290 N.pl3   1  LIG1       -0.2330
     29  N         16.0110   -4.3550   20.1490 N.pl3   1  LIG1       -0.2330
     30  H         14.9030   -5.8260   22.7610 H       1  LIG1        0.1740
     31  H         15.0300   -6.3370   21.1390 H       1  LIG1        0.1740
     32  H         16.4080   -3.5350   19.7780 H       1  LIG1        0.1740
     33  H         15.8260   -5.1230   19.5610 H       1  LIG1        0.1740
@<TRIPOS>BOND
     1    33    29    1
     2    32    29    1
     3    29    27    1
     4    31    28    1
     5    27    28    1
     6    27    26    2
     7    28    30    1
     8    26    23    1
     9    23    22   ar
    10    23    24   ar
    11    22    21   ar
    12    24    25   ar
    13    21    20   ar
    14    25    20   ar
    15    20    18    1
    16    18     1    1
    17    18    19    2
    18     1     2    1
    19     7     2   ar
    20     7     6   ar
    21     2     3   ar
    22     6     5   ar
    23     3     4   ar
    24     5     4   ar
    25     5     8    1
    26     8     9    1
    27    12    11    1
    28    12    13    1
    29    14    13    2
    30    11     9    1
    31    13    15   am
    32     9    10    2
    33    15    16    1
    34    15    17    1
@<TRIPOS>MOLECULE
./../dock_file/temp/cc5835d65acf9ed32aae84e485348313/Camostat_Ligand_CID_2536:hmTMPRSS2:20230411234231/Camostat_Ligand_CID_2536:hmTMPRSS2_out_5.pdbqt
 33 34 0 0 0
SMALL
GASTEIGER

@<TRIPOS>ATOM
      1  O         10.3760   -4.6970   32.4230 O.3     1  LIG1       -0.2750
      2  C          9.4770   -3.7310   32.0910 C.ar    1  LIG1        0.0790
      3  C          9.8770   -2.3970   32.0240 C.ar    1  LIG1        0.0380
      4  C          8.9550   -1.4080   31.6840 C.ar    1  LIG1        0.0100
      5  C          7.6320   -1.7530   31.4090 C.ar    1  LIG1       -0.0490
      6  C          7.2310   -3.0870   31.4770 C.ar    1  LIG1        0.0100
      7  C          8.1530   -4.0770   31.8170 C.ar    1  LIG1        0.0380
      8  C          6.6350   -0.6840   31.0420 C.3     1  LIG1        0.1490
      9  C          5.5180   -0.5490   32.0500 C.2     1  LIG1        0.2630
     10  O          4.3570   -0.8910   31.8730 O.2     1  LIG1       -0.2650
     11  O          6.0070    0.0200   33.2030 O.3     1  LIG1       -0.3120
     12  C          5.1530   -0.0150   34.3270 C.3     1  LIG1        0.2810
     13  C          5.9800   -0.0300   35.5950 C.2     1  LIG1        0.2430
     14  O          6.3390    1.0450   36.0830 O.2     1  LIG1       -0.2710
     15  N          6.2840   -1.2740   36.1490 N.am    1  LIG1       -0.3590
     16  C          5.8650   -2.5660   35.6100 C.3     1  LIG1        0.1520
     17  C          7.0710   -1.3400   37.3740 C.3     1  LIG1        0.1520
     18  C         10.5420   -5.6870   31.4510 C.2     1  LIG1        0.2980
     19  O         10.1590   -6.8440   31.5400 O.2     1  LIG1       -0.2590
     20  C         11.2720   -5.1610   30.2700 C.ar    1  LIG1        0.0400
     21  C         12.6660   -5.1700   30.2510 C.ar    1  LIG1        0.0200
     22  C         13.3520   -4.6770   29.1410 C.ar    1  LIG1        0.0330
     23  C         12.6430   -4.1730   28.0500 C.ar    1  LIG1        0.0750
     24  C         11.2480   -4.1630   28.0690 C.ar    1  LIG1        0.0330
     25  C         10.5630   -4.6570   29.1780 C.ar    1  LIG1        0.0200
     26  N         13.3310   -3.6780   26.9370 N.pl3   1  LIG1       -0.0660
     27  C         13.7280   -2.4280   26.9420 C.cat   1  LIG1        0.6920
     28  N         13.5470   -1.4980   27.9430 N.pl3   1  LIG1       -0.2330
     29  N         14.4070   -1.9030   25.8670 N.pl3   1  LIG1       -0.2330
     30  H         13.0730   -1.7500   28.7680 H       1  LIG1        0.1740
     31  H         13.8910   -0.5820   27.8320 H       1  LIG1        0.1740
     32  H         14.6010   -2.4660   25.0850 H       1  LIG1        0.1740
     33  H         14.7000   -0.9620   25.8830 H       1  LIG1        0.1740
@<TRIPOS>BOND
     1    32    29    1
     2    29    33    1
     3    29    27    1
     4    26    27    2
     5    26    23    1
     6    27    28    1
     7    31    28    1
     8    28    30    1
     9    23    24   ar
    10    23    22   ar
    11    24    25   ar
    12    22    21   ar
    13    25    20   ar
    14    21    20   ar
    15    20    18    1
    16     8     5    1
    17     8     9    1
    18     5     6   ar
    19     5     4   ar
    20    18    19    2
    21    18     1    1
    22     6     7   ar
    23     4     3   ar
    24     7     2   ar
    25    10     9    2
    26     3     2   ar
    27     9    11    1
    28     2     1    1
    29    11    12    1
    30    12    13    1
    31    13    14    2
    32    13    15   am
    33    16    15    1
    34    15    17    1
@<TRIPOS>MOLECULE
./../dock_file/temp/cc5835d65acf9ed32aae84e485348313/Camostat_Ligand_CID_2536:hmTMPRSS2:20230411234231/Camostat_Ligand_CID_2536:hmTMPRSS2_out_5.pdbqt
 33 34 0 0 0
SMALL
GASTEIGER

@<TRIPOS>ATOM
      1  O          9.4860   -4.8930   31.9950 O.3     1  LIG1       -0.2750
      2  C          8.3650   -4.2590   32.4340 C.ar    1  LIG1        0.0790
      3  C          7.7080   -3.3480   31.6070 C.ar    1  LIG1        0.0380
      4  C          6.5590   -2.6990   32.0570 C.ar    1  LIG1        0.0100
      5  C          6.0650   -2.9610   33.3350 C.ar    1  LIG1       -0.0490
      6  C          6.7220   -3.8720   34.1630 C.ar    1  LIG1        0.0100
      7  C          7.8720   -4.5220   33.7120 C.ar    1  LIG1        0.0380
      8  C          4.8240   -2.2600   33.8220 C.3     1  LIG1        0.1490
      9  C          3.6010   -2.5880   32.9980 C.2     1  LIG1        0.2630
     10  O          3.2610   -2.0110   31.9740 O.2     1  LIG1       -0.2650
     11  O          2.9260   -3.6370   33.5750 O.3     1  LIG1       -0.3120
     12  C          1.6760   -3.9640   33.0060 C.3     1  LIG1        0.2810
     13  C          1.2000   -5.2950   33.5510 C.2     1  LIG1        0.2430
     14  O          1.6870   -6.3320   33.0920 O.2     1  LIG1       -0.2710
     15  N          0.2350   -5.2690   34.5580 N.am    1  LIG1       -0.3590
     16  C         -0.3530   -4.0630   35.1360 C.3     1  LIG1        0.1520
     17  C         -0.2470   -6.5240   35.1200 C.3     1  LIG1        0.1520
     18  C         10.6290   -4.0900   31.9730 C.2     1  LIG1        0.2980
     19  O         11.0700   -3.4510   32.9160 O.2     1  LIG1       -0.2590
     20  C         11.2560   -4.0880   30.6270 C.ar    1  LIG1        0.0400
     21  C         10.4660   -3.9220   29.4900 C.ar    1  LIG1        0.0200
     22  C         11.0560   -3.9200   28.2250 C.ar    1  LIG1        0.0330
     23  C         12.4340   -4.0860   28.0980 C.ar    1  LIG1        0.0750
     24  C         13.2250   -4.2520   29.2350 C.ar    1  LIG1        0.0330
     25  C         12.6360   -4.2540   30.5000 C.ar    1  LIG1        0.0200
     26  N         13.0250   -4.0840   26.8300 N.pl3   1  LIG1       -0.0660
     27  C         13.5030   -2.9590   26.3550 C.cat   1  LIG1        0.6920
     28  N         13.4980   -1.7250   26.9680 N.pl3   1  LIG1       -0.2330
     29  N         14.0920   -2.9150   25.1130 N.pl3   1  LIG1       -0.2330
     30  H         13.1040   -1.6220   27.8640 H       1  LIG1        0.1740
     31  H         13.8890   -0.9460   26.5090 H       1  LIG1        0.1740
     32  H         14.1590   -3.7330   24.5700 H       1  LIG1        0.1740
     33  H         14.4470   -2.0640   24.7670 H       1  LIG1        0.1740
@<TRIPOS>BOND
     1    32    29    1
     2    33    29    1
     3    29    27    1
     4    27    26    2
     5    27    28    1
     6    31    28    1
     7    26    23    1
     8    28    30    1
     9    23    22   ar
    10    23    24   ar
    11    22    21   ar
    12    24    25   ar
    13    21    20   ar
    14    25    20   ar
    15    20    18    1
    16     3     4   ar
    17     3     2   ar
    18    18     1    1
    19    18    19    2
    20    10     9    2
    21     1     2    1
    22     4     5   ar
    23     2     7   ar
    24     9    11    1
    25     9     8    1
    26    12    13    1
    27    12    11    1
    28    14    13    2
    29     5     8    1
    30     5     6   ar
    31    13    15   am
    32     7     6   ar
    33    15    17    1
    34    15    16    1
@<TRIPOS>MOLECULE
./../dock_file/temp/cc5835d65acf9ed32aae84e485348313/Camostat_Ligand_CID_2536:hmTMPRSS2:20230411234231/Camostat_Ligand_CID_2536:hmTMPRSS2_out_5.pdbqt
 33 34 0 0 0
SMALL
GASTEIGER

@<TRIPOS>ATOM
      1  O          6.2470   -0.9710   33.5550 O.3     1  LIG1       -0.2750
      2  C          5.3480   -1.9690   33.7740 C.ar    1  LIG1        0.0790
      3  C          5.6090   -2.9470   34.7340 C.ar    1  LIG1        0.0380
      4  C          4.6880   -3.9690   34.9570 C.ar    1  LIG1        0.0100
      5  C          3.5030   -4.0140   34.2220 C.ar    1  LIG1       -0.0490
      6  C          3.2410   -3.0360   33.2610 C.ar    1  LIG1        0.0100
      7  C          4.1640   -2.0130   33.0380 C.ar    1  LIG1        0.0380
      8  C          2.5070   -5.1180   34.4630 C.3     1  LIG1        0.1490
      9  C          1.7690   -4.9700   35.7730 C.2     1  LIG1        0.2630
     10  O          2.0670   -5.5280   36.8210 O.2     1  LIG1       -0.2650
     11  O          0.7100   -4.1090   35.6090 O.3     1  LIG1       -0.3120
     12  C         -0.2900   -4.5160   34.7000 C.3     1  LIG1        0.2810
     13  C         -1.1050   -5.6390   35.3070 C.2     1  LIG1        0.2430
     14  O         -1.6320   -5.4610   36.4090 O.2     1  LIG1       -0.2710
     15  N         -1.2200   -6.8200   34.5730 N.am    1  LIG1       -0.3590
     16  C         -0.6240   -7.0630   33.2610 C.3     1  LIG1        0.1520
     17  C         -2.0000   -7.9260   35.1120 C.3     1  LIG1        0.1520
     18  C          6.6050   -0.8030   32.2150 C.2     1  LIG1        0.2980
     19  O          6.0740   -0.0370   31.4260 O.2     1  LIG1       -0.2590
     20  C          7.7280   -1.7020   31.8450 C.ar    1  LIG1        0.0400
     21  C          9.0400   -1.2360   31.8960 C.ar    1  LIG1        0.0200
     22  C         10.0950   -2.0810   31.5480 C.ar    1  LIG1        0.0330
     23  C          9.8360   -3.3920   31.1490 C.ar    1  LIG1        0.0750
     24  C          8.5220   -3.8590   31.0970 C.ar    1  LIG1        0.0330
     25  C          7.4680   -3.0140   31.4450 C.ar    1  LIG1        0.0200
     26  N         10.8930   -4.2390   30.8000 N.pl3   1  LIG1       -0.0660
     27  C         11.3110   -4.2530   29.5570 C.cat   1  LIG1        0.6920
     28  N         10.8220   -3.5100   28.5040 N.pl3   1  LIG1       -0.2330
     29  N         12.3470   -5.0710   29.1730 N.pl3   1  LIG1       -0.2330
     30  H         10.0760   -2.8850   28.6470 H       1  LIG1        0.1740
     31  H         11.2180   -3.6080   27.6070 H       1  LIG1        0.1740
     32  H         12.7850   -5.6530   29.8340 H       1  LIG1        0.1740
     33  H         12.6520   -5.0720   28.2370 H       1  LIG1        0.1740
@<TRIPOS>BOND
     1    31    28    1
     2    33    29    1
     3    28    30    1
     4    28    27    1
     5    29    27    1
     6    29    32    1
     7    27    26    2
     8    26    23    1
     9    24    23   ar
    10    24    25   ar
    11    23    22   ar
    12    19    18    2
    13    25    20   ar
    14    22    21   ar
    15    20    21   ar
    16    20    18    1
    17    18     1    1
    18     7     6   ar
    19     7     2   ar
    20    16    15    1
    21     6     5   ar
    22     1     2    1
    23     2     3   ar
    24     5     8    1
    25     5     4   ar
    26     8     9    1
    27    15    17    1
    28    15    13   am
    29    12    13    1
    30    12    11    1
    31     3     4   ar
    32    13    14    2
    33    11     9    1
    34     9    10    2
@<TRIPOS>MOLECULE
./../dock_file/temp/cc5835d65acf9ed32aae84e485348313/Camostat_Ligand_CID_2536:hmTMPRSS2:20230411234231/Camostat_Ligand_CID_2536:hmTMPRSS2_out_5.pdbqt
 33 34 0 0 0
SMALL
GASTEIGER

@<TRIPOS>ATOM
      1  O         10.5500   -2.6440   32.0440 O.3     1  LIG1       -0.2750
      2  C          9.2060   -2.5620   32.2440 C.ar    1  LIG1        0.0790
      3  C          8.3290   -3.2120   31.3750 C.ar    1  LIG1        0.0380
      4  C          6.9530   -3.1280   31.5800 C.ar    1  LIG1        0.0100
      5  C          6.4520   -2.3950   32.6570 C.ar    1  LIG1       -0.0490
      6  C          7.3290   -1.7450   33.5260 C.ar    1  LIG1        0.0100
      7  C          8.7060   -1.8300   33.3200 C.ar    1  LIG1        0.0380
      8  C          4.9650   -2.3040   32.8790 C.3     1  LIG1        0.1490
      9  C          4.4800   -3.2010   33.9940 C.2     1  LIG1        0.2630
     10  O          5.1790   -3.6720   34.8800 O.2     1  LIG1       -0.2650
     11  O          3.1270   -3.4080   33.8620 O.3     1  LIG1       -0.3120
     12  C          2.6300   -4.6300   34.3630 C.3     1  LIG1        0.2810
     13  C          1.2640   -4.9070   33.7700 C.2     1  LIG1        0.2430
     14  O          0.6270   -3.9680   33.2860 O.2     1  LIG1       -0.2710
     15  N          0.8060   -6.2240   33.7990 N.am    1  LIG1       -0.3590
     16  C          1.5370   -7.3640   34.3490 C.3     1  LIG1        0.1520
     17  C         -0.4980   -6.5410   33.2320 C.3     1  LIG1        0.1520
     18  C         11.0690   -1.6480   31.2130 C.2     1  LIG1        0.2980
     19  O         10.9400   -0.4450   31.3780 O.2     1  LIG1       -0.2590
     20  C         11.8020   -2.2380   30.0640 C.ar    1  LIG1        0.0400
     21  C         13.1040   -1.8260   29.7830 C.ar    1  LIG1        0.0200
     22  C         13.7940   -2.3800   28.7040 C.ar    1  LIG1        0.0330
     23  C         13.1800   -3.3450   27.9060 C.ar    1  LIG1        0.0750
     24  C         11.8770   -3.7570   28.1870 C.ar    1  LIG1        0.0330
     25  C         11.1880   -3.2030   29.2650 C.ar    1  LIG1        0.0200
     26  N         13.8720   -3.9010   26.8240 N.pl3   1  LIG1       -0.0660
     27  C         13.9480   -3.2210   25.7050 C.cat   1  LIG1        0.6920
     28  N         13.4130   -1.9780   25.4440 N.pl3   1  LIG1       -0.2330
     29  N         14.6190   -3.7320   24.6180 N.pl3   1  LIG1       -0.2330
     30  H         12.9070   -1.5040   26.1420 H       1  LIG1        0.1740
     31  H         13.5360   -1.5660   24.5590 H       1  LIG1        0.1740
     32  H         15.0480   -4.6150   24.6750 H       1  LIG1        0.1740
     33  H         14.6690   -3.2120   23.7830 H       1  LIG1        0.1740
@<TRIPOS>BOND
     1    33    29    1
     2    31    28    1
     3    29    32    1
     4    29    27    1
     5    28    27    1
     6    28    30    1
     7    27    26    2
     8    26    23    1
     9    23    24   ar
    10    23    22   ar
    11    24    25   ar
    12    22    21   ar
    13    25    20   ar
    14    21    20   ar
    15    20    18    1
    16    18    19    2
    17    18     1    1
    18     3     4   ar
    19     3     2   ar
    20     4     5   ar
    21     1     2    1
    22     2     7   ar
    23     5     8    1
    24     5     6   ar
    25     8     9    1
    26    17    15    1
    27    14    13    2
    28     7     6   ar
    29    13    15   am
    30    13    12    1
    31    15    16    1
    32    11     9    1
    33    11    12    1
    34     9    10    2
@<TRIPOS>MOLECULE
./../dock_file/temp/cc5835d65acf9ed32aae84e485348313/Camostat_Ligand_CID_2536:hmTMPRSS2:20230411234231/Camostat_Ligand_CID_2536:hmTMPRSS2_out_5.pdbqt
 33 34 0 0 0
SMALL
GASTEIGER

@<TRIPOS>ATOM
      1  O          9.5060   -7.6510   32.9620 O.3     1  LIG1       -0.2750
      2  C          9.0910   -6.3890   32.6650 C.ar    1  LIG1        0.0790
      3  C          8.7990   -5.4910   33.6920 C.ar    1  LIG1        0.0380
      4  C          8.3730   -4.1990   33.3870 C.ar    1  LIG1        0.0100
      5  C          8.2400   -3.8030   32.0560 C.ar    1  LIG1       -0.0490
      6  C          8.5320   -4.7010   31.0300 C.ar    1  LIG1        0.0100
      7  C          8.9580   -5.9940   31.3340 C.ar    1  LIG1        0.0380
      8  C          7.7800   -2.4060   31.7270 C.3     1  LIG1        0.1490
      9  C          6.2790   -2.2950   31.6000 C.2     1  LIG1        0.2630
     10  O          5.6670   -2.1260   30.5540 O.2     1  LIG1       -0.2650
     11  O          5.7020   -2.4150   32.8420 O.3     1  LIG1       -0.3120
     12  C          5.6280   -1.2340   33.6120 C.3     1  LIG1        0.2810
     13  C          5.7680   -1.5750   35.0810 C.2     1  LIG1        0.2430
     14  O          5.8280   -2.7620   35.4120 O.2     1  LIG1       -0.2710
     15  N          5.8290   -0.5120   35.9840 N.am    1  LIG1       -0.3590
     16  C          5.7760    0.9040   35.6300 C.3     1  LIG1        0.1520
     17  C          5.9720   -0.7890   37.4070 C.3     1  LIG1        0.1520
     18  C         10.7240   -8.0070   32.3770 C.2     1  LIG1        0.2980
     19  O         11.7630   -7.3680   32.4480 O.2     1  LIG1       -0.2590
     20  C         10.6040   -9.2810   31.6240 C.ar    1  LIG1        0.0400
     21  C         11.4860   -9.5610   30.5810 C.ar    1  LIG1        0.0200
     22  C         11.3730  -10.7590   29.8750 C.ar    1  LIG1        0.0330
     23  C         10.3780  -11.6760   30.2100 C.ar    1  LIG1        0.0750
     24  C          9.4940  -11.3960   31.2530 C.ar    1  LIG1        0.0330
     25  C          9.6070  -10.1990   31.9600 C.ar    1  LIG1        0.0200
     26  N         10.2650  -12.8760   29.5010 N.pl3   1  LIG1       -0.0660
     27  C          9.4950  -12.9160   28.4400 C.cat   1  LIG1        0.6920
     28  N          8.7510  -11.8840   27.9100 N.pl3   1  LIG1       -0.2330
     29  N          9.3570  -14.0760   27.7150 N.pl3   1  LIG1       -0.2330
     30  H          8.7630  -10.9980   28.3370 H       1  LIG1        0.1740
     31  H          8.2060  -12.0350   27.1030 H       1  LIG1        0.1740
     32  H          9.8390  -14.8890   27.9900 H       1  LIG1        0.1740
     33  H          8.7760  -14.0930   26.9200 H       1  LIG1        0.1740
@<TRIPOS>BOND
     1    33    29    1
     2    31    28    1
     3    29    32    1
     4    29    27    1
     5    28    30    1
     6    28    27    1
     7    27    26    2
     8    26    23    1
     9    22    23   ar
    10    22    21   ar
    11    23    24   ar
    12    10     9    2
    13    21    20   ar
    14     6     7   ar
    15     6     5   ar
    16    24    25   ar
    17     7     2   ar
    18     9     8    1
    19     9    11    1
    20    20    25   ar
    21    20    18    1
    22     8     5    1
    23     5     4   ar
    24    18    19    2
    25    18     1    1
    26     2     1    1
    27     2     3   ar
    28    11    12    1
    29     4     3   ar
    30    12    13    1
    31    13    14    2
    32    13    15   am
    33    16    15    1
    34    15    17    1
@<TRIPOS>MOLECULE
./../dock_file/temp/cc5835d65acf9ed32aae84e485348313/Camostat_Ligand_CID_2536:hmTMPRSS2:20230411234231/Camostat_Ligand_CID_2536:hmTMPRSS2_out_5.pdbqt
 33 34 0 0 0
SMALL
GASTEIGER

@<TRIPOS>ATOM
      1  O          0.6060   -6.2200   33.2830 O.3     1  LIG1       -0.2750
      2  C          1.7040   -5.5800   33.7710 C.ar    1  LIG1        0.0790
      3  C          2.5290   -6.2170   34.6980 C.ar    1  LIG1        0.0380
      4  C          3.6530   -5.5610   35.1970 C.ar    1  LIG1        0.0100
      5  C          3.9550   -4.2680   34.7690 C.ar    1  LIG1       -0.0490
      6  C          3.1300   -3.6310   33.8410 C.ar    1  LIG1        0.0100
      7  C          2.0050   -4.2870   33.3420 C.ar    1  LIG1        0.0380
      8  C          5.1700   -3.5590   35.3080 C.3     1  LIG1        0.1490
      9  C          6.4080   -3.7940   34.4730 C.2     1  LIG1        0.2630
     10  O          7.0270   -4.8470   34.4040 O.2     1  LIG1       -0.2650
     11  O          6.7330   -2.6400   33.8000 O.3     1  LIG1       -0.3120
     12  C          6.6410   -2.6920   32.3920 C.3     1  LIG1        0.2810
     13  C          7.9470   -2.2310   31.7790 C.2     1  LIG1        0.2430
     14  O          8.2060   -1.0250   31.7710 O.2     1  LIG1       -0.2710
     15  N          8.7940   -3.2110   31.2600 N.am    1  LIG1       -0.3590
     16  C          8.5290   -4.6480   31.2640 C.3     1  LIG1        0.1520
     17  C         10.0650   -2.8170   30.6670 C.3     1  LIG1        0.1520
     18  C         -0.4840   -6.2360   34.1560 C.2     1  LIG1        0.2980
     19  O         -1.0460   -5.2520   34.6130 O.2     1  LIG1       -0.2590
     20  C         -0.8840   -7.6270   34.4880 C.ar    1  LIG1        0.0400
     21  C         -0.7490   -8.6370   33.5360 C.ar    1  LIG1        0.0200
     22  C         -1.1240   -9.9440   33.8490 C.ar    1  LIG1        0.0330
     23  C         -1.6340  -10.2410   35.1120 C.ar    1  LIG1        0.0750
     24  C         -1.7680   -9.2310   36.0650 C.ar    1  LIG1        0.0330
     25  C         -1.3940   -7.9240   35.7530 C.ar    1  LIG1        0.0200
     26  N         -2.0090  -11.5520   35.4250 N.pl3   1  LIG1       -0.0660
     27  C         -3.2360  -11.9370   35.1700 C.cat   1  LIG1        0.6920
     28  N         -4.2470  -11.1870   34.6090 N.pl3   1  LIG1       -0.2330
     29  N         -3.6460  -13.2170   35.4620 N.pl3   1  LIG1       -0.2330
     30  H         -4.0830  -10.2510   34.3540 H       1  LIG1        0.1740
     31  H         -5.1350  -11.5880   34.4650 H       1  LIG1        0.1740
     32  H         -3.0150  -13.8550   35.8660 H       1  LIG1        0.1740
     33  H         -4.5700  -13.4950   35.2650 H       1  LIG1        0.1740
@<TRIPOS>BOND
     1    17    15    1
     2    15    16    1
     3    15    13   am
     4    14    13    2
     5    13    12    1
     6    12    11    1
     7     1     2    1
     8     1    18    1
     9     7     2   ar
    10     7     6   ar
    11    21    22   ar
    12    21    20   ar
    13     2     3   ar
    14    11     9    1
    15     6     5   ar
    16    22    23   ar
    17    18    20    1
    18    18    19    2
    19    30    28    1
    20    10     9    2
    21    31    28    1
    22     9     8    1
    23    20    25   ar
    24    28    27    1
    25     3     4   ar
    26     5     4   ar
    27     5     8    1
    28    23    26    1
    29    23    24   ar
    30    27    26    2
    31    27    29    1
    32    33    29    1
    33    29    32    1
    34    25    24   ar
