@<TRIPOS>MOLECULE
./../dock_file/temp/9500775f823359490cf1cd87815470de/Camostat_Ligand_CID_2536:hmTMPRSS11_D:20230418105132/Camostat_Ligand_CID_2536:hmTMPRSS11_D_out_2.pdbqt
 33 34 0 0 0
SMALL
GASTEIGER

@<TRIPOS>ATOM
      1  O         15.2980   -1.5800   30.2300 O.3     1  LIG1       -0.2750
      2  C         15.9940   -0.5540   30.7920 C.ar    1  LIG1        0.0790
      3  C         15.3190    0.4510   31.4850 C.ar    1  LIG1        0.0380
      4  C         16.0330    1.5010   32.0600 C.ar    1  LIG1        0.0100
      5  C         17.4220    1.5480   31.9430 C.ar    1  LIG1       -0.0490
      6  C         18.0970    0.5430   31.2500 C.ar    1  LIG1        0.0100
      7  C         17.3830   -0.5090   30.6740 C.ar    1  LIG1        0.0380
      8  C         18.1940    2.6830   32.5640 C.3     1  LIG1        0.1490
      9  C         18.1270    3.9550   31.7520 C.2     1  LIG1        0.2630
     10  O         17.1750    4.7220   31.7120 O.2     1  LIG1       -0.2650
     11  O         19.3040    4.1210   31.0610 O.3     1  LIG1       -0.3120
     12  C         19.2330    3.9680   29.6590 C.3     1  LIG1        0.2810
     13  C         20.2560    2.9480   29.2050 C.2     1  LIG1        0.2430
     14  O         19.8750    1.8080   28.9290 O.2     1  LIG1       -0.2710
     15  N         21.5850    3.3660   29.1170 N.am    1  LIG1       -0.3590
     16  C         22.0720    4.7100   29.4220 C.3     1  LIG1        0.1520
     17  C         22.6040    2.4230   28.6770 C.3     1  LIG1        0.1520
     18  C         15.5340   -2.8250   30.8190 C.2     1  LIG1        0.2980
     19  O         15.4080   -3.0880   32.0050 O.2     1  LIG1       -0.2590
     20  C         15.9840   -3.8170   29.8100 C.ar    1  LIG1        0.0400
     21  C         17.3460   -3.9980   29.5690 C.ar    1  LIG1        0.0200
     22  C         17.7690   -4.9300   28.6220 C.ar    1  LIG1        0.0330
     23  C         16.8300   -5.6820   27.9150 C.ar    1  LIG1        0.0750
     24  C         15.4680   -5.5010   28.1560 C.ar    1  LIG1        0.0330
     25  C         15.0450   -4.5690   29.1030 C.ar    1  LIG1        0.0200
     26  N         17.2550   -6.6170   26.9650 N.pl3   1  LIG1       -0.0660
     27  C         16.8680   -6.4750   25.7200 C.cat   1  LIG1        0.6920
     28  N         16.0630   -5.4830   25.2030 N.pl3   1  LIG1       -0.2330
     29  N         17.2630   -7.3730   24.7560 N.pl3   1  LIG1       -0.2330
     30  H         15.7130   -4.7770   25.7920 H       1  LIG1        0.1740
     31  H         15.8390   -5.4810   24.2440 H       1  LIG1        0.1740
     32  H         17.8430   -8.1300   24.9960 H       1  LIG1        0.1740
     33  H         16.9670   -7.2550   23.8240 H       1  LIG1        0.1740
@<TRIPOS>BOND
     1    33    29    1
     2    31    28    1
     3    29    32    1
     4    29    27    1
     5    28    27    1
     6    28    30    1
     7    27    26    2
     8    26    23    1
     9    23    24   ar
    10    23    22   ar
    11    24    25   ar
    12    22    21   ar
    13    17    15    1
    14    14    13    2
    15    25    20   ar
    16    15    13   am
    17    15    16    1
    18    13    12    1
    19    21    20   ar
    20    12    11    1
    21    20    18    1
    22     1     2    1
    23     1    18    1
    24     7     2   ar
    25     7     6   ar
    26     2     3   ar
    27    18    19    2
    28    11     9    1
    29     6     5   ar
    30     3     4   ar
    31    10     9    2
    32     9     8    1
    33     5     4   ar
    34     5     8    1
@<TRIPOS>MOLECULE
./../dock_file/temp/9500775f823359490cf1cd87815470de/Camostat_Ligand_CID_2536:hmTMPRSS11_D:20230418105132/Camostat_Ligand_CID_2536:hmTMPRSS11_D_out_2.pdbqt
 33 34 0 0 0
SMALL
GASTEIGER

@<TRIPOS>ATOM
      1  O         15.8610   -1.3030   31.9520 O.3     1  LIG1       -0.2750
      2  C         16.1590   -2.5470   31.4860 C.ar    1  LIG1        0.0790
      3  C         17.4860   -2.8990   31.2360 C.ar    1  LIG1        0.0380
      4  C         17.7920   -4.1720   30.7590 C.ar    1  LIG1        0.0100
      5  C         16.7710   -5.0960   30.5310 C.ar    1  LIG1       -0.0490
      6  C         15.4440   -4.7440   30.7800 C.ar    1  LIG1        0.0100
      7  C         15.1390   -3.4690   31.2580 C.ar    1  LIG1        0.0380
      8  C         17.1010   -6.4720   30.0150 C.3     1  LIG1        0.1490
      9  C         17.8680   -6.4450   28.7130 C.2     1  LIG1        0.2630
     10  O         18.9910   -6.8990   28.5430 O.2     1  LIG1       -0.2650
     11  O         17.1090   -5.8300   27.7460 O.3     1  LIG1       -0.3120
     12  C         17.4290   -6.1470   26.4070 C.3     1  LIG1        0.2810
     13  C         16.1980   -5.9890   25.5390 C.2     1  LIG1        0.2430
     14  O         15.4650   -5.0130   25.7190 O.2     1  LIG1       -0.2710
     15  N         15.9670   -6.9660   24.5690 N.am    1  LIG1       -0.3590
     16  C         16.8180   -8.1260   24.3160 C.3     1  LIG1        0.1520
     17  C         14.8000   -6.8530   23.7030 C.3     1  LIG1        0.1520
     18  C         15.6490   -0.3500   30.9530 C.2     1  LIG1        0.2980
     19  O         14.7400   -0.3640   30.1360 O.2     1  LIG1       -0.2590
     20  C         16.6940    0.7040   30.9890 C.ar    1  LIG1        0.0400
     21  C         17.9430    0.4670   30.4160 C.ar    1  LIG1        0.0200
     22  C         18.9240    1.4580   30.4490 C.ar    1  LIG1        0.0330
     23  C         18.6570    2.6850   31.0550 C.ar    1  LIG1        0.0750
     24  C         17.4080    2.9230   31.6280 C.ar    1  LIG1        0.0330
     25  C         16.4260    1.9320   31.5950 C.ar    1  LIG1        0.0200
     26  N         19.6420    3.6780   31.0880 N.pl3   1  LIG1       -0.0660
     27  C         19.5970    4.6450   30.2030 C.cat   1  LIG1        0.6920
     28  N         18.6660    4.8160   29.2000 N.pl3   1  LIG1       -0.2330
     29  N         20.5450    5.6400   30.2010 N.pl3   1  LIG1       -0.2330
     30  H         17.9330    4.1690   29.0940 H       1  LIG1        0.1740
     31  H         18.7370    5.5860   28.5900 H       1  LIG1        0.1740
     32  H         21.2670    5.6330   30.8700 H       1  LIG1        0.1740
     33  H         20.5010    6.3610   29.5310 H       1  LIG1        0.1740
@<TRIPOS>BOND
     1    17    15    1
     2    16    15    1
     3    15    13   am
     4    13    14    2
     5    13    12    1
     6    12    11    1
     7    11     9    1
     8    10     9    2
     9    31    28    1
    10     9     8    1
    11    30    28    1
    12    28    27    1
    13    33    29    1
    14     8     5    1
    15    19    18    2
    16    29    27    1
    17    29    32    1
    18    27    26    2
    19    21    22   ar
    20    21    20   ar
    21    22    23   ar
    22     5     4   ar
    23     5     6   ar
    24     4     3   ar
    25     6     7   ar
    26    18    20    1
    27    18     1    1
    28    20    25   ar
    29    23    26    1
    30    23    24   ar
    31     3     2   ar
    32     7     2   ar
    33     2     1    1
    34    25    24   ar
@<TRIPOS>MOLECULE
./../dock_file/temp/9500775f823359490cf1cd87815470de/Camostat_Ligand_CID_2536:hmTMPRSS11_D:20230418105132/Camostat_Ligand_CID_2536:hmTMPRSS11_D_out_2.pdbqt
 33 34 0 0 0
SMALL
GASTEIGER

@<TRIPOS>ATOM
      1  O         16.9220   -4.1690   31.3330 O.3     1  LIG1       -0.2750
      2  C         16.3070   -5.2890   31.8030 C.ar    1  LIG1        0.0790
      3  C         17.0360   -6.2360   32.5230 C.ar    1  LIG1        0.0380
      4  C         16.4060   -7.3830   33.0040 C.ar    1  LIG1        0.0100
      5  C         15.0460   -7.5840   32.7670 C.ar    1  LIG1       -0.0490
      6  C         14.3170   -6.6370   32.0470 C.ar    1  LIG1        0.0100
      7  C         14.9470   -5.4890   31.5650 C.ar    1  LIG1        0.0380
      8  C         14.3640   -8.8230   33.2860 C.3     1  LIG1        0.1490
      9  C         13.9630   -8.7100   34.7380 C.2     1  LIG1        0.2630
     10  O         14.5410   -9.2390   35.6770 O.2     1  LIG1       -0.2650
     11  O         12.8450   -7.9170   34.8450 O.3     1  LIG1       -0.3120
     12  C         12.8650   -6.9440   35.8680 C.3     1  LIG1        0.2810
     13  C         12.9740   -5.5630   35.2560 C.2     1  LIG1        0.2430
     14  O         11.9740   -5.0670   34.7300 O.2     1  LIG1       -0.2710
     15  N         14.2110   -4.9220   35.3340 N.am    1  LIG1       -0.3590
     16  C         15.4110   -5.4700   35.9610 C.3     1  LIG1        0.1520
     17  C         14.3630   -3.5880   34.7670 C.3     1  LIG1        0.1520
     18  C         17.9290   -4.4170   30.3980 C.2     1  LIG1        0.2980
     19  O         19.1270   -4.2610   30.5820 O.2     1  LIG1       -0.2590
     20  C         17.3600   -4.8880   29.1100 C.ar    1  LIG1        0.0400
     21  C         16.5790   -4.0290   28.3370 C.ar    1  LIG1        0.0200
     22  C         16.0440   -4.4720   27.1270 C.ar    1  LIG1        0.0330
     23  C         16.2900   -5.7730   26.6900 C.ar    1  LIG1        0.0750
     24  C         17.0710   -6.6330   27.4630 C.ar    1  LIG1        0.0330
     25  C         17.6060   -6.1900   28.6730 C.ar    1  LIG1        0.0200
     26  N         15.7540   -6.2170   25.4770 N.pl3   1  LIG1       -0.0660
     27  C         16.5020   -6.9440   24.6810 C.cat   1  LIG1        0.6920
     28  N         17.8040   -7.3440   24.8940 N.pl3   1  LIG1       -0.2330
     29  N         16.0130   -7.4000   23.4800 N.pl3   1  LIG1       -0.2330
     30  H         18.2700   -7.0820   25.7200 H       1  LIG1        0.1740
     31  H         18.2660   -7.8920   24.2190 H       1  LIG1        0.1740
     32  H         15.0920   -7.1830   23.2090 H       1  LIG1        0.1740
     33  H         16.5840   -7.9450   22.8910 H       1  LIG1        0.1740
@<TRIPOS>BOND
     1    33    29    1
     2    32    29    1
     3    29    27    1
     4    31    28    1
     5    27    28    1
     6    27    26    2
     7    28    30    1
     8    26    23    1
     9    23    22   ar
    10    23    24   ar
    11    22    21   ar
    12    24    25   ar
    13    21    20   ar
    14    25    20   ar
    15    20    18    1
    16    18    19    2
    17    18     1    1
    18     1     2    1
    19     7     2   ar
    20     7     6   ar
    21     2     3   ar
    22     6     5   ar
    23     3     4   ar
    24     5     4   ar
    25     5     8    1
    26     8     9    1
    27    14    13    2
    28     9    11    1
    29     9    10    2
    30    17    15    1
    31    11    12    1
    32    13    15   am
    33    13    12    1
    34    15    16    1
@<TRIPOS>MOLECULE
./../dock_file/temp/9500775f823359490cf1cd87815470de/Camostat_Ligand_CID_2536:hmTMPRSS11_D:20230418105132/Camostat_Ligand_CID_2536:hmTMPRSS11_D_out_2.pdbqt
 33 34 0 0 0
SMALL
GASTEIGER

@<TRIPOS>ATOM
      1  O         15.9460    2.6850   31.2510 O.3     1  LIG1       -0.2750
      2  C         15.9500    1.3280   31.1540 C.ar    1  LIG1        0.0790
      3  C         16.6210    0.7050   30.1010 C.ar    1  LIG1        0.0380
      4  C         16.6250   -0.6850   30.0020 C.ar    1  LIG1        0.0100
      5  C         15.9590   -1.4550   30.9570 C.ar    1  LIG1       -0.0490
      6  C         15.2880   -0.8320   32.0100 C.ar    1  LIG1        0.0100
      7  C         15.2840    0.5590   32.1090 C.ar    1  LIG1        0.0380
      8  C         15.9630   -2.9580   30.8500 C.3     1  LIG1        0.1490
      9  C         17.1040   -3.4860   30.0120 C.2     1  LIG1        0.2630
     10  O         18.2220   -3.7580   30.4280 O.2     1  LIG1       -0.2650
     11  O         16.6940   -3.6160   28.7070 O.3     1  LIG1       -0.3120
     12  C         15.6250   -4.5080   28.4750 C.3     1  LIG1        0.2810
     13  C         15.3980   -4.6550   26.9840 C.2     1  LIG1        0.2430
     14  O         14.5830   -3.9120   26.4320 O.2     1  LIG1       -0.2710
     15  N         16.1420   -5.6280   26.3140 N.am    1  LIG1       -0.3590
     16  C         17.1260   -6.5140   26.9300 C.3     1  LIG1        0.1520
     17  C         15.9650   -5.8010   24.8780 C.3     1  LIG1        0.1520
     18  C         16.8400    3.1970   32.1950 C.2     1  LIG1        0.2980
     19  O         16.5590    3.5300   33.3360 O.2     1  LIG1       -0.2590
     20  C         18.2090    3.3070   31.6290 C.ar    1  LIG1        0.0400
     21  C         18.4740    4.2290   30.6180 C.ar    1  LIG1        0.0200
     22  C         19.7600    4.3330   30.0880 C.ar    1  LIG1        0.0330
     23  C         20.7810    3.5130   30.5680 C.ar    1  LIG1        0.0750
     24  C         20.5170    2.5900   31.5800 C.ar    1  LIG1        0.0330
     25  C         19.2300    2.4860   32.1100 C.ar    1  LIG1        0.0200
     26  N         22.0710    3.6170   30.0360 N.pl3   1  LIG1       -0.0660
     27  C         22.4020    2.8510   29.0240 C.cat   1  LIG1        0.6920
     28  N         21.6120    1.9180   28.3900 N.pl3   1  LIG1       -0.2330
     29  N         23.6600    2.9230   28.4720 N.pl3   1  LIG1       -0.2330
     30  H         20.6870    1.7690   28.6910 H       1  LIG1        0.1740
     31  H         21.9740    1.3980   27.6350 H       1  LIG1        0.1740
     32  H         24.3220    3.5530   28.8350 H       1  LIG1        0.1740
     33  H         23.8970    2.3430   27.7120 H       1  LIG1        0.1740
@<TRIPOS>BOND
     1    17    15    1
     2    15    16    1
     3    15    13   am
     4    14    13    2
     5    13    12    1
     6    31    28    1
     7    33    29    1
     8    28    30    1
     9    28    27    1
    10    29    32    1
    11    29    27    1
    12    12    11    1
    13    11     9    1
    14    27    26    2
    15     4     3   ar
    16     4     5   ar
    17     9    10    2
    18     9     8    1
    19    26    23    1
    20    22    23   ar
    21    22    21   ar
    22     3     2   ar
    23    23    24   ar
    24    21    20   ar
    25     8     5    1
    26     5     6   ar
    27     2     1    1
    28     2     7   ar
    29     1    18    1
    30    24    25   ar
    31    20    25   ar
    32    20    18    1
    33     6     7   ar
    34    18    19    2
@<TRIPOS>MOLECULE
./../dock_file/temp/9500775f823359490cf1cd87815470de/Camostat_Ligand_CID_2536:hmTMPRSS11_D:20230418105132/Camostat_Ligand_CID_2536:hmTMPRSS11_D_out_2.pdbqt
 33 34 0 0 0
SMALL
GASTEIGER

@<TRIPOS>ATOM
      1  O         18.9790   -3.2580   31.1270 O.3     1  LIG1       -0.2750
      2  C         18.1830   -2.1930   31.4190 C.ar    1  LIG1        0.0790
      3  C         18.5270   -1.3280   32.4590 C.ar    1  LIG1        0.0380
      4  C         17.7120   -0.2380   32.7580 C.ar    1  LIG1        0.0100
      5  C         16.5530   -0.0090   32.0170 C.ar    1  LIG1       -0.0490
      6  C         16.2080   -0.8730   30.9770 C.ar    1  LIG1        0.0100
      7  C         17.0240   -1.9650   30.6780 C.ar    1  LIG1        0.0380
      8  C         15.6720    1.1700   32.3400 C.3     1  LIG1        0.1490
      9  C         16.4110    2.4860   32.2990 C.2     1  LIG1        0.2630
     10  O         16.5060    3.2750   33.2300 O.2     1  LIG1       -0.2650
     11  O         16.9640    2.6640   31.0530 O.3     1  LIG1       -0.3120
     12  C         18.3190    3.0630   31.0230 C.3     1  LIG1        0.2810
     13  C         19.0530    2.2870   29.9490 C.2     1  LIG1        0.2430
     14  O         18.5710    1.2240   29.5500 O.2     1  LIG1       -0.2710
     15  N         20.2430    2.8310   29.4640 N.am    1  LIG1       -0.3590
     16  C         20.8380    4.0930   29.9000 C.3     1  LIG1        0.1520
     17  C         20.9810    2.1260   28.4240 C.3     1  LIG1        0.1520
     18  C         18.3700   -4.5000   31.3230 C.2     1  LIG1        0.2980
     19  O         18.1960   -5.0460   32.4010 O.2     1  LIG1       -0.2590
     20  C         17.9630   -5.1060   30.0290 C.ar    1  LIG1        0.0400
     21  C         16.6720   -5.6080   29.8710 C.ar    1  LIG1        0.0200
     22  C         16.2890   -6.1760   28.6560 C.ar    1  LIG1        0.0330
     23  C         17.1970   -6.2440   27.6000 C.ar    1  LIG1        0.0750
     24  C         18.4890   -5.7420   27.7580 C.ar    1  LIG1        0.0330
     25  C         18.8720   -5.1730   28.9730 C.ar    1  LIG1        0.0200
     26  N         16.8130   -6.8140   26.3810 N.pl3   1  LIG1       -0.0660
     27  C         16.1720   -6.0730   25.5090 C.cat   1  LIG1        0.6920
     28  N         15.8120   -4.7500   25.6430 N.pl3   1  LIG1       -0.2330
     29  N         15.7770   -6.5960   24.3000 N.pl3   1  LIG1       -0.2330
     30  H         16.0360   -4.2590   26.4650 H       1  LIG1        0.1740
     31  H         15.3280   -4.2960   24.9140 H       1  LIG1        0.1740
     32  H         15.9760   -7.5340   24.0810 H       1  LIG1        0.1740
     33  H         15.2970   -6.0300   23.6530 H       1  LIG1        0.1740
@<TRIPOS>BOND
     1    33    29    1
     2    32    29    1
     3    29    27    1
     4    31    28    1
     5    27    28    1
     6    27    26    2
     7    28    30    1
     8    26    23    1
     9    23    24   ar
    10    23    22   ar
    11    24    25   ar
    12    17    15    1
    13    22    21   ar
    14    25    20   ar
    15    15    16    1
    16    15    13   am
    17    14    13    2
    18    21    20   ar
    19    13    12    1
    20    20    18    1
    21     7     6   ar
    22     7     2   ar
    23     6     5   ar
    24    12    11    1
    25    11     9    1
    26     1    18    1
    27     1     2    1
    28    18    19    2
    29     2     3   ar
    30     5     8    1
    31     5     4   ar
    32     9     8    1
    33     9    10    2
    34     3     4   ar
@<TRIPOS>MOLECULE
./../dock_file/temp/9500775f823359490cf1cd87815470de/Camostat_Ligand_CID_2536:hmTMPRSS11_D:20230418105132/Camostat_Ligand_CID_2536:hmTMPRSS11_D_out_2.pdbqt
 33 34 0 0 0
SMALL
GASTEIGER

@<TRIPOS>ATOM
      1  O         15.0240   -2.2600   32.1500 O.3     1  LIG1       -0.2750
      2  C         15.6950   -1.1170   31.8450 C.ar    1  LIG1        0.0790
      3  C         15.3620   -0.3970   30.6970 C.ar    1  LIG1        0.0380
      4  C         16.0500    0.7750   30.3850 C.ar    1  LIG1        0.0100
      5  C         17.0710    1.2290   31.2210 C.ar    1  LIG1       -0.0490
      6  C         17.4040    0.5090   32.3690 C.ar    1  LIG1        0.0100
      7  C         16.7160   -0.6630   32.6810 C.ar    1  LIG1        0.0380
      8  C         17.8140    2.4960   30.8840 C.3     1  LIG1        0.1490
      9  C         19.1260    2.2390   30.1790 C.2     1  LIG1        0.2630
     10  O         19.3170    1.3840   29.3260 O.2     1  LIG1       -0.2650
     11  O         20.0760    3.1180   30.6440 O.3     1  LIG1       -0.3120
     12  C         21.0770    3.4980   29.7240 C.3     1  LIG1        0.2810
     13  C         20.7640    4.8710   29.1680 C.2     1  LIG1        0.2430
     14  O         19.6170    5.1060   28.7780 O.2     1  LIG1       -0.2710
     15  N         21.8010    5.8040   29.1380 N.am    1  LIG1       -0.3590
     16  C         23.1660    5.5690   29.6040 C.3     1  LIG1        0.1520
     17  C         21.5450    7.1420   28.6200 C.3     1  LIG1        0.1520
     18  C         15.8120   -3.4140   32.1220 C.2     1  LIG1        0.2980
     19  O         16.2440   -4.0060   33.0990 O.2     1  LIG1       -0.2590
     20  C         16.0860   -3.8410   30.7260 C.ar    1  LIG1        0.0400
     21  C         17.3990   -3.9100   30.2630 C.ar    1  LIG1        0.0200
     22  C         17.6560   -4.3110   28.9520 C.ar    1  LIG1        0.0330
     23  C         16.6000   -4.6430   28.1040 C.ar    1  LIG1        0.0750
     24  C         15.2860   -4.5740   28.5670 C.ar    1  LIG1        0.0330
     25  C         15.0290   -4.1720   29.8780 C.ar    1  LIG1        0.0200
     26  N         16.8580   -5.0450   26.7890 N.pl3   1  LIG1       -0.0660
     27  C         17.3150   -6.2560   26.5750 C.cat   1  LIG1        0.6920
     28  N         17.5850   -7.2250   27.5170 N.pl3   1  LIG1       -0.2330
     29  N         17.5810   -6.6900   25.2980 N.pl3   1  LIG1       -0.2330
     30  H         17.4370   -7.0380   28.4720 H       1  LIG1        0.1740
     31  H         17.9280   -8.1040   27.2340 H       1  LIG1        0.1740
     32  H         17.4280   -6.0910   24.5320 H       1  LIG1        0.1740
     33  H         17.9230   -7.6020   25.1500 H       1  LIG1        0.1740
@<TRIPOS>BOND
     1    32    29    1
     2    33    29    1
     3    29    27    1
     4    27    26    2
     5    27    28    1
     6    26    23    1
     7    31    28    1
     8    28    30    1
     9    23    24   ar
    10    23    22   ar
    11    24    25   ar
    12    17    15    1
    13    14    13    2
    14    22    21   ar
    15    15    13   am
    16    15    16    1
    17    13    12    1
    18    10     9    2
    19    12    11    1
    20    25    20   ar
    21     9    11    1
    22     9     8    1
    23    21    20   ar
    24     4     3   ar
    25     4     5   ar
    26     3     2   ar
    27    20    18    1
    28     8     5    1
    29     5     6   ar
    30     2     1    1
    31     2     7   ar
    32    18     1    1
    33    18    19    2
    34     6     7   ar
@<TRIPOS>MOLECULE
./../dock_file/temp/9500775f823359490cf1cd87815470de/Camostat_Ligand_CID_2536:hmTMPRSS11_D:20230418105132/Camostat_Ligand_CID_2536:hmTMPRSS11_D_out_2.pdbqt
 33 34 0 0 0
SMALL
GASTEIGER

@<TRIPOS>ATOM
      1  O         20.1460   -7.6940   31.8850 O.3     1  LIG1       -0.2750
      2  C         19.3620   -6.8680   31.1410 C.ar    1  LIG1        0.0790
      3  C         18.8260   -5.7130   31.7120 C.ar    1  LIG1        0.0380
      4  C         18.0220   -4.8660   30.9490 C.ar    1  LIG1        0.0100
      5  C         17.7540   -5.1730   29.6150 C.ar    1  LIG1       -0.0490
      6  C         18.2890   -6.3280   29.0440 C.ar    1  LIG1        0.0100
      7  C         19.0940   -7.1750   29.8070 C.ar    1  LIG1        0.0380
      8  C         16.8850   -4.2590   28.7910 C.3     1  LIG1        0.1490
      9  C         15.6130   -3.8570   29.5000 C.2     1  LIG1        0.2630
     10  O         15.3550   -2.7350   29.9120 O.2     1  LIG1       -0.2650
     11  O         14.7860   -4.9500   29.6130 O.3     1  LIG1       -0.3120
     12  C         14.0220   -5.0350   30.7970 C.3     1  LIG1        0.2810
     13  C         14.7940   -5.8080   31.8460 C.2     1  LIG1        0.2430
     14  O         15.1630   -6.9560   31.5860 O.2     1  LIG1       -0.2710
     15  N         15.0530   -5.1640   33.0570 N.am    1  LIG1       -0.3590
     16  C         14.6460   -3.8020   33.3970 C.3     1  LIG1        0.1520
     17  C         15.8000   -5.8640   34.0940 C.3     1  LIG1        0.1520
     18  C         19.8280   -9.0490   31.7660 C.2     1  LIG1        0.2980
     19  O         20.4430   -9.8710   31.1040 O.2     1  LIG1       -0.2590
     20  C         18.6100   -9.3830   32.5480 C.ar    1  LIG1        0.0400
     21  C         17.5970  -10.1460   31.9690 C.ar    1  LIG1        0.0200
     22  C         16.4540  -10.4600   32.7030 C.ar    1  LIG1        0.0330
     23  C         16.3220  -10.0100   34.0160 C.ar    1  LIG1        0.0750
     24  C         17.3350   -9.2460   34.5970 C.ar    1  LIG1        0.0330
     25  C         18.4790   -8.9320   33.8620 C.ar    1  LIG1        0.0200
     26  N         15.1750  -10.3250   34.7530 N.pl3   1  LIG1       -0.0660
     27  C         14.0380   -9.7580   34.4280 C.cat   1  LIG1        0.6920
     28  N         13.8170   -8.8530   33.4120 N.pl3   1  LIG1       -0.2330
     29  N         12.8880  -10.0400   35.1270 N.pl3   1  LIG1       -0.2330
     30  H         14.5620   -8.5670   32.8370 H       1  LIG1        0.1740
     31  H         12.9120   -8.4920   33.2640 H       1  LIG1        0.1740
     32  H         12.9120  -10.6740   35.8790 H       1  LIG1        0.1740
     33  H         12.0400   -9.6080   34.8730 H       1  LIG1        0.1740
@<TRIPOS>BOND
     1     8     9    1
     2     8     5    1
     3     6     5   ar
     4     6     7   ar
     5     9    11    1
     6     9    10    2
     7    11    12    1
     8     5     4   ar
     9     7     2   ar
    10    12    13    1
    11     4     3   ar
    12    19    18    2
    13     2     3   ar
    14     2     1    1
    15    14    13    2
    16    18     1    1
    17    18    20    1
    18    13    15   am
    19    21    20   ar
    20    21    22   ar
    21    20    25   ar
    22    22    23   ar
    23    30    28    1
    24    15    16    1
    25    15    17    1
    26    31    28    1
    27    28    27    1
    28    25    24   ar
    29    23    24   ar
    30    23    26    1
    31    27    26    2
    32    27    29    1
    33    33    29    1
    34    29    32    1
@<TRIPOS>MOLECULE
./../dock_file/temp/9500775f823359490cf1cd87815470de/Camostat_Ligand_CID_2536:hmTMPRSS11_D:20230418105132/Camostat_Ligand_CID_2536:hmTMPRSS11_D_out_2.pdbqt
 33 34 0 0 0
SMALL
GASTEIGER

@<TRIPOS>ATOM
      1  O         16.3140   -1.8940   32.1480 O.3     1  LIG1       -0.2750
      2  C         17.0520   -0.9390   31.5200 C.ar    1  LIG1        0.0790
      3  C         18.3780   -0.7220   31.8960 C.ar    1  LIG1        0.0380
      4  C         19.1340    0.2570   31.2530 C.ar    1  LIG1        0.0100
      5  C         18.5660    1.0190   30.2310 C.ar    1  LIG1       -0.0490
      6  C         17.2400    0.8010   29.8550 C.ar    1  LIG1        0.0100
      7  C         16.4830   -0.1780   30.4990 C.ar    1  LIG1        0.0380
      8  C         19.3830    2.0760   29.5360 C.3     1  LIG1        0.1490
      9  C         19.5590    3.3250   30.3670 C.2     1  LIG1        0.2630
     10  O         18.7620    3.7460   31.1930 O.2     1  LIG1       -0.2650
     11  O         20.7590    3.9200   30.0530 O.3     1  LIG1       -0.3120
     12  C         20.6870    5.1040   29.2870 C.3     1  LIG1        0.2810
     13  C         22.0170    5.8270   29.3430 C.2     1  LIG1        0.2430
     14  O         22.8710    5.5660   28.4920 O.2     1  LIG1       -0.2710
     15  N         22.1960    6.7640   30.3610 N.am    1  LIG1       -0.3590
     16  C         21.2050    7.1120   31.3770 C.3     1  LIG1        0.1520
     17  C         23.4550    7.4920   30.4510 C.3     1  LIG1        0.1520
     18  C         16.9060   -3.1590   32.1660 C.2     1  LIG1        0.2980
     19  O         17.5250   -3.6430   33.1010 O.2     1  LIG1       -0.2590
     20  C         16.7050   -3.8630   30.8730 C.ar    1  LIG1        0.0400
     21  C         15.4220   -4.2340   30.4730 C.ar    1  LIG1        0.0200
     22  C         15.2340   -4.8940   29.2590 C.ar    1  LIG1        0.0330
     23  C         16.3290   -5.1850   28.4460 C.ar    1  LIG1        0.0750
     24  C         17.6130   -4.8140   28.8460 C.ar    1  LIG1        0.0330
     25  C         17.8010   -4.1540   30.0600 C.ar    1  LIG1        0.0200
     26  N         16.1400   -5.8470   27.2280 N.pl3   1  LIG1       -0.0660
     27  C         15.7580   -5.1540   26.1820 C.cat   1  LIG1        0.6920
     28  N         15.5070   -3.8000   26.1240 N.pl3   1  LIG1       -0.2330
     29  N         15.5610   -5.7670   24.9670 N.pl3   1  LIG1       -0.2330
     30  H         15.6110   -3.2450   26.9300 H       1  LIG1        0.1740
     31  H         15.2220   -3.3890   25.2760 H       1  LIG1        0.1740
     32  H         15.7070   -6.7360   24.8750 H       1  LIG1        0.1740
     33  H         15.2740   -5.2360   24.1890 H       1  LIG1        0.1740
@<TRIPOS>BOND
     1    33    29    1
     2    32    29    1
     3    29    27    1
     4    31    28    1
     5    28    27    1
     6    28    30    1
     7    27    26    2
     8    26    23    1
     9    23    24   ar
    10    23    22   ar
    11    14    13    2
    12    24    25   ar
    13    22    21   ar
    14    12    13    1
    15    12    11    1
    16    13    15   am
    17     8     5    1
    18     8     9    1
    19     6     5   ar
    20     6     7   ar
    21    11     9    1
    22    25    20   ar
    23     5     4   ar
    24    15    17    1
    25    15    16    1
    26     9    10    2
    27    21    20   ar
    28     7     2   ar
    29    20    18    1
    30     4     3   ar
    31     2     3   ar
    32     2     1    1
    33     1    18    1
    34    18    19    2
@<TRIPOS>MOLECULE
./../dock_file/temp/9500775f823359490cf1cd87815470de/Camostat_Ligand_CID_2536:hmTMPRSS11_D:20230418105132/Camostat_Ligand_CID_2536:hmTMPRSS11_D_out_2.pdbqt
 33 34 0 0 0
SMALL
GASTEIGER

@<TRIPOS>ATOM
      1  O         16.3710    1.6160   30.4100 O.3     1  LIG1       -0.2750
      2  C         16.2420    0.3040   30.7520 C.ar    1  LIG1        0.0790
      3  C         17.0840   -0.6510   30.1830 C.ar    1  LIG1        0.0380
      4  C         16.9510   -1.9940   30.5330 C.ar    1  LIG1        0.0100
      5  C         15.9770   -2.3830   31.4530 C.ar    1  LIG1       -0.0490
      6  C         15.1340   -1.4270   32.0210 C.ar    1  LIG1        0.0100
      7  C         15.2670   -0.0830   31.6710 C.ar    1  LIG1        0.0380
      8  C         15.8330   -3.8340   31.8310 C.3     1  LIG1        0.1490
      9  C         15.0890   -4.6420   30.7940 C.2     1  LIG1        0.2630
     10  O         14.3050   -4.1900   29.9720 O.2     1  LIG1       -0.2650
     11  O         15.4300   -5.9690   30.9150 O.3     1  LIG1       -0.3120
     12  C         16.0080   -6.5710   29.7760 C.3     1  LIG1        0.2810
     13  C         17.5040   -6.3340   29.7790 C.2     1  LIG1        0.2430
     14  O         18.1790   -6.8120   30.6940 O.2     1  LIG1       -0.2710
     15  N         18.0380   -5.5880   28.7270 N.am    1  LIG1       -0.3590
     16  C         17.2740   -5.0190   27.6190 C.3     1  LIG1        0.1520
     17  C         19.4730   -5.3400   28.6820 C.3     1  LIG1        0.1520
     18  C         16.9860    2.4050   31.3850 C.2     1  LIG1        0.2980
     19  O         16.5390    2.6420   32.4970 O.2     1  LIG1       -0.2590
     20  C         18.2760    2.9540   30.8940 C.ar    1  LIG1        0.0400
     21  C         19.0470    3.7690   31.7220 C.ar    1  LIG1        0.0200
     22  C         20.2590    4.2830   31.2610 C.ar    1  LIG1        0.0330
     23  C         20.6990    3.9840   29.9720 C.ar    1  LIG1        0.0750
     24  C         19.9280    3.1680   29.1430 C.ar    1  LIG1        0.0330
     25  C         18.7160    2.6540   29.6040 C.ar    1  LIG1        0.0200
     26  N         21.9140    4.5000   29.5100 N.pl3   1  LIG1       -0.0660
     27  C         21.9240    5.6770   28.9310 C.cat   1  LIG1        0.6920
     28  N         20.8460    6.5070   28.7090 N.pl3   1  LIG1       -0.2330
     29  N         23.0970    6.2200   28.4630 N.pl3   1  LIG1       -0.2330
     30  H         19.9460    6.2320   28.9980 H       1  LIG1        0.1740
     31  H         20.9770    7.3740   28.2610 H       1  LIG1        0.1740
     32  H         23.9420    5.7250   28.5610 H       1  LIG1        0.1740
     33  H         23.0910    7.1050   28.0310 H       1  LIG1        0.1740
@<TRIPOS>BOND
     1    16    15    1
     2    33    29    1
     3    31    28    1
     4    29    32    1
     5    29    27    1
     6    17    15    1
     7    28    27    1
     8    28    30    1
     9    15    13   am
    10    27    26    2
    11    24    25   ar
    12    24    23   ar
    13    26    23    1
    14    25    20   ar
    15    12    13    1
    16    12    11    1
    17    13    14    2
    18    23    22   ar
    19    10     9    2
    20     3     4   ar
    21     3     2   ar
    22     1     2    1
    23     1    18    1
    24     4     5   ar
    25     2     7   ar
    26     9    11    1
    27     9     8    1
    28    20    18    1
    29    20    21   ar
    30    22    21   ar
    31    18    19    2
    32     5     8    1
    33     5     6   ar
    34     7     6   ar
