@<TRIPOS>MOLECULE
./../dock_file/temp/9500775f823359490cf1cd87815470de/Camostat_Ligand_CID_2536:hmTMPRSS11_D:20230418105132/Camostat_Ligand_CID_2536:hmTMPRSS11_D_out_5.pdbqt
 33 34 0 0 0
SMALL
GASTEIGER

@<TRIPOS>ATOM
      1  O         15.1400   -1.8180   30.1510 O.3     1  LIG1       -0.2750
      2  C         15.6670   -0.7570   30.8220 C.ar    1  LIG1        0.0790
      3  C         14.8280    0.2410   31.3200 C.ar    1  LIG1        0.0380
      4  C         15.3690    1.3270   32.0060 C.ar    1  LIG1        0.0100
      5  C         16.7480    1.4160   32.1970 C.ar    1  LIG1       -0.0490
      6  C         17.5860    0.4180   31.6990 C.ar    1  LIG1        0.0100
      7  C         17.0450   -0.6690   31.0120 C.ar    1  LIG1        0.0380
      8  C         17.3320    2.5900   32.9390 C.3     1  LIG1        0.1490
      9  C         16.7610    2.7520   34.3280 C.2     1  LIG1        0.2630
     10  O         16.1990    3.7520   34.7510 O.2     1  LIG1       -0.2650
     11  O         16.9700    1.5990   35.0480 O.3     1  LIG1       -0.3120
     12  C         15.9320    1.2130   35.9240 C.3     1  LIG1        0.2810
     13  C         15.2230   -0.0050   35.3690 C.2     1  LIG1        0.2430
     14  O         15.8830   -0.8450   34.7500 O.2     1  LIG1       -0.2710
     15  N         13.8510   -0.1110   35.6000 N.am    1  LIG1       -0.3590
     16  C         13.0400    0.8530   36.3390 C.3     1  LIG1        0.1520
     17  C         13.1280   -1.2700   35.0930 C.3     1  LIG1        0.1520
     18  C         15.3600   -3.0530   30.7650 C.2     1  LIG1        0.2980
     19  O         15.1900   -3.3010   31.9490 O.2     1  LIG1       -0.2590
     20  C         15.8560   -4.0560   29.7880 C.ar    1  LIG1        0.0400
     21  C         16.5640   -3.6400   28.6610 C.ar    1  LIG1        0.0200
     22  C         17.0300   -4.5820   27.7430 C.ar    1  LIG1        0.0330
     23  C         16.7880   -5.9390   27.9530 C.ar    1  LIG1        0.0750
     24  C         16.0800   -6.3550   29.0800 C.ar    1  LIG1        0.0330
     25  C         15.6130   -5.4140   29.9980 C.ar    1  LIG1        0.0200
     26  N         17.2550   -6.8830   27.0320 N.pl3   1  LIG1       -0.0660
     27  C         16.9380   -6.7460   25.7670 C.cat   1  LIG1        0.6920
     28  N         16.1710   -5.7510   25.2020 N.pl3   1  LIG1       -0.2330
     29  N         17.3770   -7.6530   24.8310 N.pl3   1  LIG1       -0.2330
     30  H         15.7950   -5.0390   25.7670 H       1  LIG1        0.1740
     31  H         15.9990   -5.7530   24.2320 H       1  LIG1        0.1740
     32  H         17.9370   -8.4140   25.1070 H       1  LIG1        0.1740
     33  H         17.1330   -7.5390   23.8840 H       1  LIG1        0.1740
@<TRIPOS>BOND
     1    33    29    1
     2    31    28    1
     3    29    32    1
     4    29    27    1
     5    28    30    1
     6    28    27    1
     7    27    26    2
     8    26    23    1
     9    22    23   ar
    10    22    21   ar
    11    23    24   ar
    12    21    20   ar
    13    24    25   ar
    14    20    25   ar
    15    20    18    1
    16     1    18    1
    17     1     2    1
    18    18    19    2
    19     2     7   ar
    20     2     3   ar
    21     7     6   ar
    22     3     4   ar
    23     6     5   ar
    24     4     5   ar
    25     5     8    1
    26     8     9    1
    27     9    10    2
    28     9    11    1
    29    14    13    2
    30    11    12    1
    31    17    15    1
    32    13    15   am
    33    13    12    1
    34    15    16    1
@<TRIPOS>MOLECULE
./../dock_file/temp/9500775f823359490cf1cd87815470de/Camostat_Ligand_CID_2536:hmTMPRSS11_D:20230418105132/Camostat_Ligand_CID_2536:hmTMPRSS11_D_out_5.pdbqt
 33 34 0 0 0
SMALL
GASTEIGER

@<TRIPOS>ATOM
      1  O         14.2450   -4.1760   30.0970 O.3     1  LIG1       -0.2750
      2  C         14.3500   -4.6840   31.3550 C.ar    1  LIG1        0.0790
      3  C         14.4030   -6.0650   31.5480 C.ar    1  LIG1        0.0380
      4  C         14.5110   -6.5850   32.8370 C.ar    1  LIG1        0.0100
      5  C         14.5670   -5.7260   33.9340 C.ar    1  LIG1       -0.0490
      6  C         14.5140   -4.3450   33.7410 C.ar    1  LIG1        0.0100
      7  C         14.4060   -3.8240   32.4520 C.ar    1  LIG1        0.0380
      8  C         14.6830   -6.2880   35.3270 C.3     1  LIG1        0.1490
      9  C         13.4500   -6.0450   36.1650 C.2     1  LIG1        0.2630
     10  O         12.2950   -6.1510   35.7750 O.2     1  LIG1       -0.2650
     11  O         13.8240   -5.6860   37.4390 O.3     1  LIG1       -0.3120
     12  C         14.8070   -4.6780   37.5400 C.3     1  LIG1        0.2810
     13  C         14.1670   -3.3860   38.0020 C.2     1  LIG1        0.2430
     14  O         13.4010   -2.7950   37.2360 O.2     1  LIG1       -0.2710
     15  N         14.4770   -2.9390   39.2880 N.am    1  LIG1       -0.3590
     16  C         15.3650   -3.6180   40.2290 C.3     1  LIG1        0.1520
     17  C         13.8780   -1.7060   39.7810 C.3     1  LIG1        0.1520
     18  C         15.4520   -3.7270   29.5560 C.2     1  LIG1        0.2980
     19  O         16.0900   -2.7590   29.9410 O.2     1  LIG1       -0.2590
     20  C         15.8760   -4.5780   28.4150 C.ar    1  LIG1        0.0400
     21  C         16.6930   -5.6860   28.6360 C.ar    1  LIG1        0.0200
     22  C         17.0900   -6.4850   27.5640 C.ar    1  LIG1        0.0330
     23  C         16.6720   -6.1760   26.2710 C.ar    1  LIG1        0.0750
     24  C         15.8560   -5.0670   26.0480 C.ar    1  LIG1        0.0330
     25  C         15.4580   -4.2680   27.1200 C.ar    1  LIG1        0.0200
     26  N         17.0710   -6.9770   25.1960 N.pl3   1  LIG1       -0.0660
     27  C         16.2000   -7.2560   24.2550 C.cat   1  LIG1        0.6920
     28  N         14.8870   -6.8440   24.1850 N.pl3   1  LIG1       -0.2330
     29  N         16.5530   -8.0400   23.1820 N.pl3   1  LIG1       -0.2330
     30  H         14.5110   -6.2760   24.8950 H       1  LIG1        0.1740
     31  H         14.3250   -7.1190   23.4250 H       1  LIG1        0.1740
     32  H         17.4660   -8.3980   23.1130 H       1  LIG1        0.1740
     33  H         15.8900   -8.2410   22.4820 H       1  LIG1        0.1740
@<TRIPOS>BOND
     1    33    29    1
     2    32    29    1
     3    29    27    1
     4    31    28    1
     5    28    27    1
     6    28    30    1
     7    27    26    2
     8    26    23    1
     9    24    23   ar
    10    24    25   ar
    11    23    22   ar
    12    25    20   ar
    13    22    21   ar
    14    20    21   ar
    15    20    18    1
    16    18    19    2
    17    18     1    1
    18     1     2    1
    19     2     3   ar
    20     2     7   ar
    21     3     4   ar
    22     7     6   ar
    23     4     5   ar
    24     6     5   ar
    25     5     8    1
    26     8     9    1
    27    10     9    2
    28     9    11    1
    29    14    13    2
    30    11    12    1
    31    12    13    1
    32    13    15   am
    33    15    17    1
    34    15    16    1
@<TRIPOS>MOLECULE
./../dock_file/temp/9500775f823359490cf1cd87815470de/Camostat_Ligand_CID_2536:hmTMPRSS11_D:20230418105132/Camostat_Ligand_CID_2536:hmTMPRSS11_D_out_5.pdbqt
 33 34 0 0 0
SMALL
GASTEIGER

@<TRIPOS>ATOM
      1  O         14.9450   -4.1540   32.0050 O.3     1  LIG1       -0.2750
      2  C         15.0620   -3.4290   33.1510 C.ar    1  LIG1        0.0790
      3  C         13.9290   -3.1400   33.9120 C.ar    1  LIG1        0.0380
      4  C         14.0490   -2.3970   35.0860 C.ar    1  LIG1        0.0100
      5  C         15.3010   -1.9430   35.5010 C.ar    1  LIG1       -0.0490
      6  C         16.4340   -2.2330   34.7390 C.ar    1  LIG1        0.0100
      7  C         16.3140   -2.9760   33.5640 C.ar    1  LIG1        0.0380
      8  C         15.4310   -1.1410   36.7690 C.3     1  LIG1        0.1490
      9  C         14.6500    0.1520   36.7310 C.2     1  LIG1        0.2630
     10  O         13.5080    0.3020   37.1430 O.2     1  LIG1       -0.2650
     11  O         15.4210    1.1370   36.1610 O.3     1  LIG1       -0.3120
     12  C         14.7850    1.9460   35.1930 C.3     1  LIG1        0.2810
     13  C         15.2160    1.5150   33.8070 C.2     1  LIG1        0.2430
     14  O         14.6170    0.5840   33.2610 O.2     1  LIG1       -0.2710
     15  N         16.2730    2.2100   33.2180 N.am    1  LIG1       -0.3590
     16  C         16.9970    3.3240   33.8250 C.3     1  LIG1        0.1520
     17  C         16.7180    1.8370   31.8810 C.3     1  LIG1        0.1520
     18  C         15.2480   -3.4420   30.8420 C.2     1  LIG1        0.2980
     19  O         15.0740   -2.2450   30.6730 O.2     1  LIG1       -0.2590
     20  C         15.8070   -4.3370   29.7970 C.ar    1  LIG1        0.0400
     21  C         15.7380   -5.7210   29.9540 C.ar    1  LIG1        0.0200
     22  C         16.2620   -6.5620   28.9720 C.ar    1  LIG1        0.0330
     23  C         16.8570   -6.0190   27.8340 C.ar    1  LIG1        0.0750
     24  C         16.9270   -4.6350   27.6760 C.ar    1  LIG1        0.0330
     25  C         16.4020   -3.7940   28.6580 C.ar    1  LIG1        0.0200
     26  N         17.3830   -6.8620   26.8490 N.pl3   1  LIG1       -0.0660
     27  C         16.9080   -6.7860   25.6290 C.cat   1  LIG1        0.6920
     28  N         15.9140   -5.9480   25.1710 N.pl3   1  LIG1       -0.2330
     29  N         17.3980   -7.5970   24.6330 N.pl3   1  LIG1       -0.2330
     30  H         15.4800   -5.3160   25.7880 H       1  LIG1        0.1740
     31  H         15.6390   -5.9820   24.2260 H       1  LIG1        0.1740
     32  H         18.1130   -8.2430   24.8310 H       1  LIG1        0.1740
     33  H         17.0330   -7.5300   23.7210 H       1  LIG1        0.1740
@<TRIPOS>BOND
     1    33    29    1
     2    31    28    1
     3    29    32    1
     4    29    27    1
     5    28    27    1
     6    28    30    1
     7    27    26    2
     8    26    23    1
     9    24    23   ar
    10    24    25   ar
    11    23    22   ar
    12    25    20   ar
    13    22    21   ar
    14    20    21   ar
    15    20    18    1
    16    19    18    2
    17    18     1    1
    18    17    15    1
    19     1     2    1
    20     2     7   ar
    21     2     3   ar
    22    15    13   am
    23    15    16    1
    24    14    13    2
    25     7     6   ar
    26    13    12    1
    27     3     4   ar
    28     6     5   ar
    29     4     5   ar
    30    12    11    1
    31     5     8    1
    32    11     9    1
    33     9     8    1
    34     9    10    2
@<TRIPOS>MOLECULE
./../dock_file/temp/9500775f823359490cf1cd87815470de/Camostat_Ligand_CID_2536:hmTMPRSS11_D:20230418105132/Camostat_Ligand_CID_2536:hmTMPRSS11_D_out_5.pdbqt
 33 34 0 0 0
SMALL
GASTEIGER

@<TRIPOS>ATOM
      1  O         14.7340   -4.9840   35.2080 O.3     1  LIG1       -0.2750
      2  C         14.7740   -3.6400   35.4170 C.ar    1  LIG1        0.0790
      3  C         13.6850   -2.9910   35.9980 C.ar    1  LIG1        0.0380
      4  C         13.7260   -1.6140   36.2120 C.ar    1  LIG1        0.0100
      5  C         14.8580   -0.8850   35.8460 C.ar    1  LIG1       -0.0490
      6  C         15.9470   -1.5340   35.2640 C.ar    1  LIG1        0.0100
      7  C         15.9060   -2.9120   35.0500 C.ar    1  LIG1        0.0380
      8  C         14.9030    0.6040   36.0770 C.3     1  LIG1        0.1490
      9  C         14.1230    1.3840   35.0450 C.2     1  LIG1        0.2630
     10  O         13.0180    1.8810   35.2180 O.2     1  LIG1       -0.2650
     11  O         14.8460    1.4520   33.8780 O.3     1  LIG1       -0.3120
     12  C         14.2490    0.8700   32.7380 C.3     1  LIG1        0.2810
     13  C         15.1860    0.9910   31.5550 C.2     1  LIG1        0.2430
     14  O         15.4060    2.1100   31.0840 O.2     1  LIG1       -0.2710
     15  N         15.7580   -0.1840   31.0660 N.am    1  LIG1       -0.3590
     16  C         15.5340   -1.5240   31.6050 C.3     1  LIG1        0.1520
     17  C         16.6730   -0.1180   29.9340 C.3     1  LIG1        0.1520
     18  C         13.7640   -5.3950   34.2900 C.2     1  LIG1        0.2980
     19  O         12.5930   -5.6270   34.5470 O.2     1  LIG1       -0.2590
     20  C         14.3410   -5.5350   32.9280 C.ar    1  LIG1        0.0400
     21  C         13.7540   -4.8730   31.8510 C.ar    1  LIG1        0.0200
     22  C         14.2970   -5.0040   30.5720 C.ar    1  LIG1        0.0330
     23  C         15.4250   -5.7980   30.3710 C.ar    1  LIG1        0.0750
     24  C         16.0130   -6.4610   31.4490 C.ar    1  LIG1        0.0330
     25  C         15.4700   -6.3300   32.7280 C.ar    1  LIG1        0.0200
     26  N         15.9690   -5.9300   29.0890 N.pl3   1  LIG1       -0.0660
     27  C         16.3850   -4.8550   28.4630 C.cat   1  LIG1        0.6920
     28  N         16.3540   -3.5570   28.9240 N.pl3   1  LIG1       -0.2330
     29  N         16.9250   -4.9420   27.2020 N.pl3   1  LIG1       -0.2330
     30  H         15.9890   -3.3600   29.8160 H       1  LIG1        0.1740
     31  H         16.6970   -2.8260   28.3600 H       1  LIG1        0.1740
     32  H         17.0040   -5.8170   26.7590 H       1  LIG1        0.1740
     33  H         17.2340   -4.1280   26.7430 H       1  LIG1        0.1740
@<TRIPOS>BOND
     1    33    29    1
     2    32    29    1
     3    29    27    1
     4    31    28    1
     5    27    28    1
     6    27    26    2
     7    28    30    1
     8    26    23    1
     9    17    15    1
    10    23    22   ar
    11    23    24   ar
    12    22    21   ar
    13    15    13   am
    14    15    16    1
    15    14    13    2
    16    24    25   ar
    17    13    12    1
    18    21    20   ar
    19    25    20   ar
    20    12    11    1
    21    20    18    1
    22    11     9    1
    23    18    19    2
    24    18     1    1
    25     9    10    2
    26     9     8    1
    27     7     6   ar
    28     7     2   ar
    29     1     2    1
    30     6     5   ar
    31     2     3   ar
    32     5     8    1
    33     5     4   ar
    34     3     4   ar
@<TRIPOS>MOLECULE
./../dock_file/temp/9500775f823359490cf1cd87815470de/Camostat_Ligand_CID_2536:hmTMPRSS11_D:20230418105132/Camostat_Ligand_CID_2536:hmTMPRSS11_D_out_5.pdbqt
 33 34 0 0 0
SMALL
GASTEIGER

@<TRIPOS>ATOM
      1  O         -0.1190   -0.3710   40.9970 O.3     1  LIG1       -0.2750
      2  C          1.0790   -0.1730   40.3820 C.ar    1  LIG1        0.0790
      3  C          1.6930    1.0790   40.4340 C.ar    1  LIG1        0.0380
      4  C          2.9200    1.2810   39.8040 C.ar    1  LIG1        0.0100
      5  C          3.5360    0.2310   39.1230 C.ar    1  LIG1       -0.0490
      6  C          2.9230   -1.0210   39.0710 C.ar    1  LIG1        0.0100
      7  C          1.6950   -1.2230   39.7010 C.ar    1  LIG1        0.0380
      8  C          4.8620    0.4500   38.4420 C.3     1  LIG1        0.1490
      9  C          6.0130    0.5600   39.4150 C.2     1  LIG1        0.2630
     10  O          6.4670    1.6040   39.8610 O.2     1  LIG1       -0.2650
     11  O          6.4730   -0.6980   39.7260 O.3     1  LIG1       -0.3120
     12  C          6.6610   -0.9720   41.0980 C.3     1  LIG1        0.2810
     13  C          8.0560   -1.5190   41.3220 C.2     1  LIG1        0.2430
     14  O          8.3110   -2.6660   40.9440 O.2     1  LIG1       -0.2710
     15  N          8.9830   -0.6800   41.9410 N.am    1  LIG1       -0.3590
     16  C          8.7230    0.6870   42.3870 C.3     1  LIG1        0.1520
     17  C         10.3410   -1.1590   42.1690 C.3     1  LIG1        0.1520
     18  C         -1.1070   -0.9110   40.1700 C.2     1  LIG1        0.2980
     19  O         -1.5280   -2.0560   40.2180 O.2     1  LIG1       -0.2590
     20  C         -1.5880    0.0920   39.1860 C.ar    1  LIG1        0.0400
     21  C         -1.4330   -0.1420   37.8200 C.ar    1  LIG1        0.0200
     22  C         -1.8860    0.7990   36.8950 C.ar    1  LIG1        0.0330
     23  C         -2.4920    1.9750   37.3370 C.ar    1  LIG1        0.0750
     24  C         -2.6470    2.2090   38.7030 C.ar    1  LIG1        0.0330
     25  C         -2.1940    1.2680   39.6280 C.ar    1  LIG1        0.0200
     26  N         -2.9460    2.9190   36.4100 N.pl3   1  LIG1       -0.0660
     27  C         -2.2320    4.0000   36.2040 C.cat   1  LIG1        0.6920
     28  N         -1.0410    4.3410   36.8090 N.pl3   1  LIG1       -0.2330
     29  N         -2.6430    4.9520   35.3010 N.pl3   1  LIG1       -0.2330
     30  H         -0.6390    3.7410   37.4770 H       1  LIG1        0.1740
     31  H         -0.5940    5.1860   36.5720 H       1  LIG1        0.1740
     32  H         -3.4800    4.8260   34.8000 H       1  LIG1        0.1740
     33  H         -2.0970    5.7590   35.1550 H       1  LIG1        0.1740
@<TRIPOS>BOND
     1    32    29    1
     2    33    29    1
     3    29    27    1
     4    27    26    2
     5    27    28    1
     6    26    23    1
     7    31    28    1
     8    28    30    1
     9    22    23   ar
    10    22    21   ar
    11    23    24   ar
    12    21    20   ar
    13     8     5    1
    14     8     9    1
    15    24    25   ar
    16     6     5   ar
    17     6     7   ar
    18     5     4   ar
    19    20    25   ar
    20    20    18    1
    21     9    11    1
    22     9    10    2
    23     7     2   ar
    24    11    12    1
    25     4     3   ar
    26    18    19    2
    27    18     1    1
    28     2     3   ar
    29     2     1    1
    30    14    13    2
    31    12    13    1
    32    13    15   am
    33    15    17    1
    34    15    16    1
@<TRIPOS>MOLECULE
./../dock_file/temp/9500775f823359490cf1cd87815470de/Camostat_Ligand_CID_2536:hmTMPRSS11_D:20230418105132/Camostat_Ligand_CID_2536:hmTMPRSS11_D_out_5.pdbqt
 33 34 0 0 0
SMALL
GASTEIGER

@<TRIPOS>ATOM
      1  O         14.6170   -4.4580   35.3100 O.3     1  LIG1       -0.2750
      2  C         14.3780   -3.1420   35.0610 C.ar    1  LIG1        0.0790
      3  C         15.4140   -2.3140   34.6270 C.ar    1  LIG1        0.0380
      4  C         15.1680   -0.9660   34.3720 C.ar    1  LIG1        0.0100
      5  C         13.8870   -0.4440   34.5490 C.ar    1  LIG1       -0.0490
      6  C         12.8510   -1.2720   34.9830 C.ar    1  LIG1        0.0100
      7  C         13.0970   -2.6210   35.2390 C.ar    1  LIG1        0.0380
      8  C         13.6210    1.0130   34.2730 C.3     1  LIG1        0.1490
      9  C         14.0780    1.9180   35.3940 C.2     1  LIG1        0.2630
     10  O         14.9780    2.7420   35.3160 O.2     1  LIG1       -0.2650
     11  O         13.3250    1.6740   36.5170 O.3     1  LIG1       -0.3120
     12  C         14.0330    1.5780   37.7350 C.3     1  LIG1        0.2810
     13  C         14.2020    0.1210   38.1130 C.2     1  LIG1        0.2430
     14  O         13.2160   -0.5080   38.5060 O.2     1  LIG1       -0.2710
     15  N         15.4760   -0.4330   37.9840 N.am    1  LIG1       -0.3590
     16  C         16.6630    0.2750   37.5090 C.3     1  LIG1        0.1520
     17  C         15.6860   -1.8330   38.3280 C.3     1  LIG1        0.1520
     18  C         13.8490   -5.3370   34.5430 C.2     1  LIG1        0.2980
     19  O         12.9010   -5.9940   34.9470 O.2     1  LIG1       -0.2590
     20  C         14.3400   -5.3960   33.1430 C.ar    1  LIG1        0.0400
     21  C         13.5750   -4.8510   32.1120 C.ar    1  LIG1        0.0200
     22  C         14.0370   -4.9050   30.7970 C.ar    1  LIG1        0.0330
     23  C         15.2630   -5.5060   30.5120 C.ar    1  LIG1        0.0750
     24  C         16.0280   -6.0510   31.5430 C.ar    1  LIG1        0.0330
     25  C         15.5670   -5.9970   32.8580 C.ar    1  LIG1        0.0200
     26  N         15.7260   -5.5600   29.1930 N.pl3   1  LIG1       -0.0660
     27  C         16.1880   -4.4660   28.6380 C.cat   1  LIG1        0.6920
     28  N         16.2820   -3.2150   29.2090 N.pl3   1  LIG1       -0.2330
     29  N         16.6530   -4.4770   27.3440 N.pl3   1  LIG1       -0.2330
     30  H         15.9810   -3.0730   30.1350 H       1  LIG1        0.1740
     31  H         16.6480   -2.4630   28.6900 H       1  LIG1        0.1740
     32  H         16.6410   -5.3130   26.8240 H       1  LIG1        0.1740
     33  H         16.9980   -3.6490   26.9380 H       1  LIG1        0.1740
@<TRIPOS>BOND
     1    32    29    1
     2    33    29    1
     3    29    27    1
     4    27    26    2
     5    27    28    1
     6    31    28    1
     7    26    23    1
     8    28    30    1
     9    23    22   ar
    10    23    24   ar
    11    22    21   ar
    12    24    25   ar
    13    21    20   ar
    14    25    20   ar
    15    20    18    1
    16     8     5    1
    17     8     9    1
    18     4     5   ar
    19     4     3   ar
    20    18    19    2
    21    18     1    1
    22     5     6   ar
    23     3     2   ar
    24     6     7   ar
    25     2     7   ar
    26     2     1    1
    27    10     9    2
    28     9    11    1
    29    11    12    1
    30    16    15    1
    31    12    13    1
    32    15    13   am
    33    15    17    1
    34    13    14    2
@<TRIPOS>MOLECULE
./../dock_file/temp/9500775f823359490cf1cd87815470de/Camostat_Ligand_CID_2536:hmTMPRSS11_D:20230418105132/Camostat_Ligand_CID_2536:hmTMPRSS11_D_out_5.pdbqt
 33 34 0 0 0
SMALL
GASTEIGER

@<TRIPOS>ATOM
      1  O         -1.7220    1.4480   38.9240 O.3     1  LIG1       -0.2750
      2  C         -0.5790    0.7110   38.9560 C.ar    1  LIG1        0.0790
      3  C         -0.3750   -0.3030   38.0200 C.ar    1  LIG1        0.0380
      4  C          0.7960   -1.0580   38.0530 C.ar    1  LIG1        0.0100
      5  C          1.7660   -0.7990   39.0220 C.ar    1  LIG1       -0.0490
      6  C          1.5630    0.2150   39.9580 C.ar    1  LIG1        0.0100
      7  C          0.3910    0.9710   39.9240 C.ar    1  LIG1        0.0380
      8  C          3.0320   -1.6150   39.0580 C.3     1  LIG1        0.1490
      9  C          4.2130   -0.8470   39.6050 C.2     1  LIG1        0.2630
     10  O          4.6520   -0.9390   40.7430 O.2     1  LIG1       -0.2650
     11  O          4.7200   -0.0260   38.6260 O.3     1  LIG1       -0.3120
     12  C          5.8090    0.7910   38.9990 C.3     1  LIG1        0.2810
     13  C          5.3330    2.2150   39.1990 C.2     1  LIG1        0.2430
     14  O          4.7520    2.7820   38.2700 O.2     1  LIG1       -0.2710
     15  N          5.5750    2.8040   40.4400 N.am    1  LIG1       -0.3590
     16  C          6.2450    2.1600   41.5680 C.3     1  LIG1        0.1520
     17  C          5.1270    4.1700   40.6830 C.3     1  LIG1        0.1520
     18  C         -2.0540    1.9400   37.6590 C.2     1  LIG1        0.2980
     19  O         -2.7000    1.3440   36.8100 O.2     1  LIG1       -0.2590
     20  C         -1.5010    3.3020   37.4510 C.ar    1  LIG1        0.0400
     21  C         -1.7700    3.9910   36.2690 C.ar    1  LIG1        0.0200
     22  C         -1.2510    5.2710   36.0750 C.ar    1  LIG1        0.0330
     23  C         -0.4620    5.8620   37.0620 C.ar    1  LIG1        0.0750
     24  C         -0.1930    5.1730   38.2450 C.ar    1  LIG1        0.0330
     25  C         -0.7120    3.8930   38.4390 C.ar    1  LIG1        0.0200
     26  N          0.0580    7.1460   36.8670 N.pl3   1  LIG1       -0.0660
     27  C          1.2060    7.2770   36.2450 C.cat   1  LIG1        0.6920
     28  N          2.0000    6.2710   35.7380 N.pl3   1  LIG1       -0.2330
     29  N          1.7510    8.5210   36.0330 N.pl3   1  LIG1       -0.2330
     30  H          1.7200    5.3320   35.8260 H       1  LIG1        0.1740
     31  H          2.8470    6.4930   35.2890 H       1  LIG1        0.1740
     32  H          1.2800    9.3250   36.3480 H       1  LIG1        0.1740
     33  H          2.6140    8.6060   35.5650 H       1  LIG1        0.1740
@<TRIPOS>BOND
     1    31    28    1
     2    33    29    1
     3    28    30    1
     4    28    27    1
     5    29    27    1
     6    29    32    1
     7    22    21   ar
     8    22    23   ar
     9    27    26    2
    10    21    20   ar
    11    19    18    2
    12    26    23    1
    13    23    24   ar
    14    20    18    1
    15    20    25   ar
    16    18     1    1
    17     3     4   ar
    18     3     2   ar
    19     4     5   ar
    20    24    25   ar
    21    14    13    2
    22    11    12    1
    23    11     9    1
    24     1     2    1
    25     2     7   ar
    26    12    13    1
    27     5     8    1
    28     5     6   ar
    29     8     9    1
    30    13    15   am
    31     9    10    2
    32     7     6   ar
    33    15    17    1
    34    15    16    1
@<TRIPOS>MOLECULE
./../dock_file/temp/9500775f823359490cf1cd87815470de/Camostat_Ligand_CID_2536:hmTMPRSS11_D:20230418105132/Camostat_Ligand_CID_2536:hmTMPRSS11_D_out_5.pdbqt
 33 34 0 0 0
SMALL
GASTEIGER

@<TRIPOS>ATOM
      1  O          1.3590    8.2550   37.6030 O.3     1  LIG1       -0.2750
      2  C          0.5430    7.2660   37.1500 C.ar    1  LIG1        0.0790
      3  C          1.0860    6.1420   36.5260 C.ar    1  LIG1        0.0380
      4  C          0.2490    5.1290   36.0620 C.ar    1  LIG1        0.0100
      5  C         -1.1330    5.2360   36.2230 C.ar    1  LIG1       -0.0490
      6  C         -1.6760    6.3600   36.8470 C.ar    1  LIG1        0.0100
      7  C         -0.8390    7.3740   37.3110 C.ar    1  LIG1        0.0380
      8  C         -2.0380    4.1410   35.7220 C.3     1  LIG1        0.1490
      9  C         -2.4120    3.1480   36.7970 C.2     1  LIG1        0.2630
     10  O         -1.6880    2.7910   37.7150 O.2     1  LIG1       -0.2650
     11  O         -3.6980    2.7080   36.5870 O.3     1  LIG1       -0.3120
     12  C         -4.7070    3.6950   36.6050 C.3     1  LIG1        0.2810
     13  C         -5.9910    3.1210   36.0430 C.2     1  LIG1        0.2430
     14  O         -6.8260    2.6570   36.8250 O.2     1  LIG1       -0.2710
     15  N         -6.1590    3.1580   34.6580 N.am    1  LIG1       -0.3590
     16  C         -5.2010    3.7110   33.7030 C.3     1  LIG1        0.1520
     17  C         -7.3820    2.6260   34.0710 C.3     1  LIG1        0.1520
     18  C          1.7430    9.1770   36.6250 C.2     1  LIG1        0.2980
     19  O          2.6160    9.0060   35.7890 O.2     1  LIG1       -0.2590
     20  C          0.9550   10.4310   36.7330 C.ar    1  LIG1        0.0400
     21  C          0.1180   10.8210   35.6880 C.ar    1  LIG1        0.0200
     22  C         -0.6220   11.9980   35.7890 C.ar    1  LIG1        0.0330
     23  C         -0.5250   12.7870   36.9350 C.ar    1  LIG1        0.0750
     24  C          0.3120   12.3980   37.9810 C.ar    1  LIG1        0.0330
     25  C          1.0520   11.2200   37.8800 C.ar    1  LIG1        0.0200
     26  N         -1.2680   13.9680   37.0370 N.pl3   1  LIG1       -0.0660
     27  C         -0.7550   15.0810   36.5710 C.cat   1  LIG1        0.6920
     28  N          0.4730   15.2460   35.9670 N.pl3   1  LIG1       -0.2330
     29  N         -1.4520   16.2640   36.6510 N.pl3   1  LIG1       -0.2330
     30  H          1.0710   14.4740   35.8500 H       1  LIG1        0.1740
     31  H          0.7530   16.1380   35.6560 H       1  LIG1        0.1740
     32  H         -2.3460   16.2810   37.0610 H       1  LIG1        0.1740
     33  H         -1.0560   17.0930   36.2960 H       1  LIG1        0.1740
@<TRIPOS>BOND
     1    16    15    1
     2    17    15    1
     3    15    13   am
     4    31    28    1
     5    21    22   ar
     6    21    20   ar
     7     8     5    1
     8     8     9    1
     9    22    23   ar
    10    19    18    2
    11    30    28    1
    12    28    27    1
    13    13    12    1
    14    13    14    2
    15     4     5   ar
    16     4     3   ar
    17     5     6   ar
    18    33    29    1
    19     3     2   ar
    20    27    29    1
    21    27    26    2
    22    11    12    1
    23    11     9    1
    24    18    20    1
    25    18     1    1
    26    29    32    1
    27    20    25   ar
    28     9    10    2
    29     6     7   ar
    30    23    26    1
    31    23    24   ar
    32     2     7   ar
    33     2     1    1
    34    25    24   ar
@<TRIPOS>MOLECULE
./../dock_file/temp/9500775f823359490cf1cd87815470de/Camostat_Ligand_CID_2536:hmTMPRSS11_D:20230418105132/Camostat_Ligand_CID_2536:hmTMPRSS11_D_out_5.pdbqt
 33 34 0 0 0
SMALL
GASTEIGER

@<TRIPOS>ATOM
      1  O          1.7940    4.8210   40.3490 O.3     1  LIG1       -0.2750
      2  C          2.6820    3.8700   39.9530 C.ar    1  LIG1        0.0790
      3  C          2.4000    2.5200   40.1620 C.ar    1  LIG1        0.0380
      4  C          3.3110    1.5450   39.7560 C.ar    1  LIG1        0.0100
      5  C          4.5040    1.9200   39.1380 C.ar    1  LIG1       -0.0490
      6  C          4.7870    3.2700   38.9290 C.ar    1  LIG1        0.0100
      7  C          3.8760    4.2450   39.3360 C.ar    1  LIG1        0.0380
      8  C          5.4880    0.8670   38.6990 C.3     1  LIG1        0.1490
      9  C          6.4300    0.4440   39.8020 C.2     1  LIG1        0.2630
     10  O          7.0950    1.2020   40.4960 O.2     1  LIG1       -0.2650
     11  O          6.4270   -0.9260   39.9080 O.3     1  LIG1       -0.3120
     12  C          6.2470   -1.4510   41.2070 C.3     1  LIG1        0.2810
     13  C          7.5290   -2.1110   41.6710 C.2     1  LIG1        0.2430
     14  O          8.2730   -2.6190   40.8290 O.2     1  LIG1       -0.2710
     15  N          7.7990   -2.0970   43.0400 N.am    1  LIG1       -0.3590
     16  C          6.9510   -1.4930   44.0650 C.3     1  LIG1        0.1520
     17  C          9.0250   -2.7120   43.5340 C.3     1  LIG1        0.1520
     18  C          1.5590    5.8190   39.4000 C.2     1  LIG1        0.2980
     19  O          2.0370    6.9440   39.4150 O.2     1  LIG1       -0.2590
     20  C          0.6210    5.3490   38.3490 C.ar    1  LIG1        0.0400
     21  C         -0.4800    4.5680   38.6960 C.ar    1  LIG1        0.0200
     22  C         -1.3610    4.1260   37.7090 C.ar    1  LIG1        0.0330
     23  C         -1.1400    4.4650   36.3740 C.ar    1  LIG1        0.0750
     24  C         -0.0370    5.2460   36.0260 C.ar    1  LIG1        0.0330
     25  C          0.8430    5.6880   37.0140 C.ar    1  LIG1        0.0200
     26  N         -2.0230    4.0220   35.3840 N.pl3   1  LIG1       -0.0660
     27  C         -3.1580    4.6570   35.2170 C.cat   1  LIG1        0.6920
     28  N         -3.6140    5.7510   35.9210 N.pl3   1  LIG1       -0.2330
     29  N         -4.0540    4.2530   34.2550 N.pl3   1  LIG1       -0.2330
     30  H         -3.0650    6.1370   36.6400 H       1  LIG1        0.1740
     31  H         -4.4900    6.1440   35.7040 H       1  LIG1        0.1740
     32  H         -3.8460    3.4810   33.6820 H       1  LIG1        0.1740
     33  H         -4.9030    4.7390   34.1390 H       1  LIG1        0.1740
@<TRIPOS>BOND
     1    32    29    1
     2    33    29    1
     3    29    27    1
     4    27    26    2
     5    27    28    1
     6    26    23    1
     7    31    28    1
     8    28    30    1
     9    24    23   ar
    10    24    25   ar
    11    23    22   ar
    12    25    20   ar
    13    22    21   ar
    14    20    21   ar
    15    20    18    1
    16     8     5    1
    17     8     9    1
    18     6     5   ar
    19     6     7   ar
    20     5     4   ar
    21     7     2   ar
    22    18    19    2
    23    18     1    1
    24     4     3   ar
    25     9    11    1
    26     9    10    2
    27    11    12    1
    28     2     3   ar
    29     2     1    1
    30    14    13    2
    31    12    13    1
    32    13    15   am
    33    15    17    1
    34    15    16    1
