@<TRIPOS>MOLECULE
./../dock_file/temp/5d5b8a25041b0e88f5bdd75f41f2935b/Camostat_Ligand_CID_2536:hmTMPRSS11_B:20230418100831/Camostat_Ligand_CID_2536:hmTMPRSS11_B_out_2.pdbqt
 33 34 0 0 0
SMALL
GASTEIGER

@<TRIPOS>ATOM
      1  O         12.9590   16.5100   12.2840 O.3     1  LIG1       -0.2750
      2  C         13.9290   16.7340   11.3560 C.ar    1  LIG1        0.0790
      3  C         14.8880   15.7550   11.0970 C.ar    1  LIG1        0.0380
      4  C         15.8820   15.9850   10.1470 C.ar    1  LIG1        0.0100
      5  C         15.9170   17.1950    9.4540 C.ar    1  LIG1       -0.0490
      6  C         14.9580   18.1750    9.7130 C.ar    1  LIG1        0.0100
      7  C         13.9640   17.9440   10.6630 C.ar    1  LIG1        0.0380
      8  C         16.9910   17.4450    8.4270 C.3     1  LIG1        0.1490
      9  C         18.3830   17.4330    9.0150 C.2     1  LIG1        0.2630
     10  O         19.1000   16.4480    9.1200 O.2     1  LIG1       -0.2650
     11  O         18.7230   18.7040    9.4150 O.3     1  LIG1       -0.3120
     12  C         19.2660   18.8260   10.7120 C.3     1  LIG1        0.2810
     13  C         18.1480   19.0140   11.7170 C.2     1  LIG1        0.2430
     14  O         17.5100   20.0710   11.7040 O.2     1  LIG1       -0.2710
     15  N         17.8970   17.9660   12.6020 N.am    1  LIG1       -0.3590
     16  C         18.6190   16.6960   12.6380 C.3     1  LIG1        0.1520
     17  C         16.8260   18.0970   13.5810 C.3     1  LIG1        0.1520
     18  C         12.8340   17.5200   13.2410 C.2     1  LIG1        0.2980
     19  O         13.6450   17.7750   14.1170 O.2     1  LIG1       -0.2590
     20  C         11.5560   18.2580   13.0760 C.ar    1  LIG1        0.0400
     21  C         10.7000   17.9440   12.0210 C.ar    1  LIG1        0.0200
     22  C          9.4990   18.6370   11.8660 C.ar    1  LIG1        0.0330
     23  C          9.1550   19.6450   12.7660 C.ar    1  LIG1        0.0750
     24  C         10.0110   19.9600   13.8220 C.ar    1  LIG1        0.0330
     25  C         11.2120   19.2670   13.9760 C.ar    1  LIG1        0.0200
     26  N          7.9510   20.3400   12.6110 N.pl3   1  LIG1       -0.0660
     27  C          7.9190   21.3840   11.8170 C.cat   1  LIG1        0.6920
     28  N          8.9630   21.9060   11.0830 N.pl3   1  LIG1       -0.2330
     29  N          6.7560   22.0940   11.6370 N.pl3   1  LIG1       -0.2330
     30  H          9.8520   21.4880   11.1260 H       1  LIG1        0.1740
     31  H          8.8170   22.7000   10.5180 H       1  LIG1        0.1740
     32  H          5.9350   21.8210   12.1060 H       1  LIG1        0.1740
     33  H          6.7450   22.8750   11.0370 H       1  LIG1        0.1740
@<TRIPOS>BOND
     1     8     9    1
     2     8     5    1
     3     9    10    2
     4     9    11    1
     5    11    12    1
     6     5     6   ar
     7     5     4   ar
     8     6     7   ar
     9     4     3   ar
    10    31    28    1
    11     7     2   ar
    12    12    13    1
    13    33    29    1
    14    28    30    1
    15    28    27    1
    16     3     2   ar
    17     2     1    1
    18    29    27    1
    19    29    32    1
    20    14    13    2
    21    13    15   am
    22    27    26    2
    23    22    21   ar
    24    22    23   ar
    25    21    20   ar
    26     1    18    1
    27    15    16    1
    28    15    17    1
    29    26    23    1
    30    23    24   ar
    31    20    18    1
    32    20    25   ar
    33    18    19    2
    34    24    25   ar
@<TRIPOS>MOLECULE
./../dock_file/temp/5d5b8a25041b0e88f5bdd75f41f2935b/Camostat_Ligand_CID_2536:hmTMPRSS11_B:20230418100831/Camostat_Ligand_CID_2536:hmTMPRSS11_B_out_2.pdbqt
 33 34 0 0 0
SMALL
GASTEIGER

@<TRIPOS>ATOM
      1  O         13.2330   17.7360   13.0240 O.3     1  LIG1       -0.2750
      2  C         14.0410   17.4420   11.9690 C.ar    1  LIG1        0.0790
      3  C         14.0920   18.2970   10.8680 C.ar    1  LIG1        0.0380
      4  C         14.9200   17.9960    9.7880 C.ar    1  LIG1        0.0100
      5  C         15.6990   16.8390    9.8070 C.ar    1  LIG1       -0.0490
      6  C         15.6490   15.9830   10.9080 C.ar    1  LIG1        0.0100
      7  C         14.8200   16.2850   11.9890 C.ar    1  LIG1        0.0380
      8  C         16.5940   16.5130    8.6400 C.3     1  LIG1        0.1490
      9  C         18.0620   16.6670    8.9620 C.2     1  LIG1        0.2630
     10  O         18.9090   15.7920    8.8470 O.2     1  LIG1       -0.2650
     11  O         18.3030   17.9460    9.4060 O.3     1  LIG1       -0.3120
     12  C         19.2660   18.0800   10.4290 C.3     1  LIG1        0.2810
     13  C         18.6140   17.8470   11.7760 C.2     1  LIG1        0.2430
     14  O         18.8310   16.7840   12.3640 O.2     1  LIG1       -0.2710
     15  N         17.8030   18.8640   12.2820 N.am    1  LIG1       -0.3590
     16  C         17.5340   20.1400   11.6230 C.3     1  LIG1        0.1520
     17  C         17.1600   18.6890   13.5780 C.3     1  LIG1        0.1520
     18  C         11.9270   17.2540   12.8990 C.2     1  LIG1        0.2980
     19  O         11.5940   16.0800   12.9360 O.2     1  LIG1       -0.2590
     20  C         10.9640   18.3660   12.6940 C.ar    1  LIG1        0.0400
     21  C         10.8250   19.3560   13.6670 C.ar    1  LIG1        0.0200
     22  C          9.9210   20.4000   13.4740 C.ar    1  LIG1        0.0330
     23  C          9.1550   20.4550   12.3100 C.ar    1  LIG1        0.0750
     24  C          9.2940   19.4650   11.3370 C.ar    1  LIG1        0.0330
     25  C         10.1980   18.4200   11.5290 C.ar    1  LIG1        0.0200
     26  N          8.2480   21.5020   12.1170 N.pl3   1  LIG1       -0.0660
     27  C          8.6610   22.5980   11.5260 C.cat   1  LIG1        0.6920
     28  N          9.9270   22.8630   11.0510 N.pl3   1  LIG1       -0.2330
     29  N          7.8010   23.6500   11.3180 N.pl3   1  LIG1       -0.2330
     30  H         10.6380   22.1880   11.1400 H       1  LIG1        0.1740
     31  H         10.1210   23.7290   10.6230 H       1  LIG1        0.1740
     32  H          6.8650   23.5860   11.6120 H       1  LIG1        0.1740
     33  H          8.1240   24.4680   10.8730 H       1  LIG1        0.1740
@<TRIPOS>BOND
     1     8     9    1
     2     8     5    1
     3    10     9    2
     4     9    11    1
     5    11    12    1
     6     4     5   ar
     7     4     3   ar
     8     5     6   ar
     9    12    13    1
    10    31    28    1
    11     3     2   ar
    12    33    29    1
    13     6     7   ar
    14    28    30    1
    15    28    27    1
    16    29    27    1
    17    29    32    1
    18    24    25   ar
    19    24    23   ar
    20    27    26    2
    21    25    20   ar
    22    16    15    1
    23    13    15   am
    24    13    14    2
    25     2     7   ar
    26     2     1    1
    27    26    23    1
    28    15    17    1
    29    23    22   ar
    30    20    18    1
    31    20    21   ar
    32    18    19    2
    33    18     1    1
    34    22    21   ar
@<TRIPOS>MOLECULE
./../dock_file/temp/5d5b8a25041b0e88f5bdd75f41f2935b/Camostat_Ligand_CID_2536:hmTMPRSS11_B:20230418100831/Camostat_Ligand_CID_2536:hmTMPRSS11_B_out_2.pdbqt
 33 34 0 0 0
SMALL
GASTEIGER

@<TRIPOS>ATOM
      1  O         13.2850   17.8720   13.7560 O.3     1  LIG1       -0.2750
      2  C         14.4010   17.4250   13.1190 C.ar    1  LIG1        0.0790
      3  C         14.3800   17.2090   11.7410 C.ar    1  LIG1        0.0380
      4  C         15.5240   16.7500   11.0890 C.ar    1  LIG1        0.0100
      5  C         16.6910   16.5080   11.8150 C.ar    1  LIG1       -0.0490
      6  C         16.7120   16.7240   13.1930 C.ar    1  LIG1        0.0100
      7  C         15.5670   17.1820   13.8450 C.ar    1  LIG1        0.0380
      8  C         17.9270   16.0120   11.1110 C.3     1  LIG1        0.1490
      9  C         19.0300   17.0440   11.0600 C.2     1  LIG1        0.2630
     10  O         20.0270   17.0510   11.7670 O.2     1  LIG1       -0.2650
     11  O         18.7400   17.9770   10.0920 O.3     1  LIG1       -0.3120
     12  C         18.8510   19.3310   10.4770 C.3     1  LIG1        0.2810
     13  C         17.4810   19.8780   10.8190 C.2     1  LIG1        0.2430
     14  O         16.6450   19.9900    9.9180 O.2     1  LIG1       -0.2710
     15  N         17.2380   20.2180   12.1500 N.am    1  LIG1       -0.3590
     16  C         18.1960   20.0860   13.2460 C.3     1  LIG1        0.1520
     17  C         15.9320   20.7400   12.5290 C.3     1  LIG1        0.1520
     18  C         12.0910   17.3340   13.2690 C.2     1  LIG1        0.2980
     19  O         11.8120   16.1450   13.2220 O.2     1  LIG1       -0.2590
     20  C         11.1790   18.4020   12.7870 C.ar    1  LIG1        0.0400
     21  C         11.0840   19.6050   13.4850 C.ar    1  LIG1        0.0200
     22  C         10.2280   20.6090   13.0310 C.ar    1  LIG1        0.0330
     23  C          9.4660   20.4090   11.8800 C.ar    1  LIG1        0.0750
     24  C          9.5610   19.2050   11.1810 C.ar    1  LIG1        0.0330
     25  C         10.4170   18.2010   11.6350 C.ar    1  LIG1        0.0200
     26  N          8.6080   21.4150   11.4250 N.pl3   1  LIG1       -0.0660
     27  C          7.4240   21.5370   11.9770 C.cat   1  LIG1        0.6920
     28  N          6.8940   20.7680   12.9910 N.pl3   1  LIG1       -0.2330
     29  N          6.5510   22.5130   11.5590 N.pl3   1  LIG1       -0.2330
     30  H          7.4210   20.0330   13.3790 H       1  LIG1        0.1740
     31  H          5.9870   20.9550   13.3270 H       1  LIG1        0.1740
     32  H          6.8110   23.1300   10.8390 H       1  LIG1        0.1740
     33  H          5.6650   22.5940   11.9830 H       1  LIG1        0.1740
@<TRIPOS>BOND
     1    14    13    2
     2    11    12    1
     3    11     9    1
     4    12    13    1
     5    13    15   am
     6    32    29    1
     7     9     8    1
     8     9    10    2
     9     4     3   ar
    10     4     5   ar
    11     8     5    1
    12    24    25   ar
    13    24    23   ar
    14    26    23    1
    15    26    27    2
    16    29    27    1
    17    29    33    1
    18    25    20   ar
    19     3     2   ar
    20     5     6   ar
    21    23    22   ar
    22    27    28    1
    23    15    17    1
    24    15    16    1
    25    20    18    1
    26    20    21   ar
    27    28    31    1
    28    28    30    1
    29    22    21   ar
    30     2     1    1
    31     2     7   ar
    32     6     7   ar
    33    19    18    2
    34    18     1    1
@<TRIPOS>MOLECULE
./../dock_file/temp/5d5b8a25041b0e88f5bdd75f41f2935b/Camostat_Ligand_CID_2536:hmTMPRSS11_B:20230418100831/Camostat_Ligand_CID_2536:hmTMPRSS11_B_out_2.pdbqt
 33 34 0 0 0
SMALL
GASTEIGER

@<TRIPOS>ATOM
      1  O         12.5290   16.7960   13.0490 O.3     1  LIG1       -0.2750
      2  C         11.5580   17.7500   13.0210 C.ar    1  LIG1        0.0790
      3  C         11.3980   18.6150   14.1040 C.ar    1  LIG1        0.0380
      4  C         10.4040   19.5920   14.0750 C.ar    1  LIG1        0.0100
      5  C          9.5690   19.7060   12.9630 C.ar    1  LIG1       -0.0490
      6  C          9.7300   18.8410   11.8800 C.ar    1  LIG1        0.0100
      7  C         10.7240   17.8630   11.9090 C.ar    1  LIG1        0.0380
      8  C          8.4950   20.7610   12.9310 C.3     1  LIG1        0.1490
      9  C          9.0480   22.1620   12.8100 C.2     1  LIG1        0.2630
     10  O          9.2480   22.9290   13.7420 O.2     1  LIG1       -0.2650
     11  O          9.2960   22.4440   11.4870 O.3     1  LIG1       -0.3120
     12  C         10.6220   22.8050   11.1640 C.3     1  LIG1        0.2810
     13  C         11.2220   21.7650   10.2410 C.2     1  LIG1        0.2430
     14  O         10.7080   21.5860    9.1330 O.2     1  LIG1       -0.2710
     15  N         12.3400   21.0670   10.7000 N.am    1  LIG1       -0.3590
     16  C         12.9850   21.2600   11.9960 C.3     1  LIG1        0.1520
     17  C         12.9570   20.0620    9.8440 C.3     1  LIG1        0.1520
     18  C         13.7900   17.2700   13.4180 C.2     1  LIG1        0.2980
     19  O         14.1830   17.4340   14.5640 O.2     1  LIG1       -0.2590
     20  C         14.6170   17.5770   12.2240 C.ar    1  LIG1        0.0400
     21  C         15.5500   18.6120   12.2690 C.ar    1  LIG1        0.0200
     22  C         16.3280   18.9000   11.1470 C.ar    1  LIG1        0.0330
     23  C         16.1710   18.1540    9.9800 C.ar    1  LIG1        0.0750
     24  C         15.2370   17.1180    9.9340 C.ar    1  LIG1        0.0330
     25  C         14.4600   16.8300   11.0560 C.ar    1  LIG1        0.0200
     26  N         16.9510   18.4420    8.8540 N.pl3   1  LIG1       -0.0660
     27  C         18.0720   17.7870    8.6750 C.cat   1  LIG1        0.6920
     28  N         18.6050   16.8080    9.4860 N.pl3   1  LIG1       -0.2330
     29  N         18.8670   18.0400    7.5820 N.pl3   1  LIG1       -0.2330
     30  H         18.1320   16.5340   10.3030 H       1  LIG1        0.1740
     31  H         19.4620   16.3840    9.2460 H       1  LIG1        0.1740
     32  H         18.5960   18.7200    6.9240 H       1  LIG1        0.1740
     33  H         19.7060   17.5410    7.4580 H       1  LIG1        0.1740
@<TRIPOS>BOND
     1    32    29    1
     2    33    29    1
     3    29    27    1
     4    27    26    2
     5    27    28    1
     6    26    23    1
     7    14    13    2
     8    31    28    1
     9    28    30    1
    10    17    15    1
    11    24    23   ar
    12    24    25   ar
    13    23    22   ar
    14    13    15   am
    15    13    12    1
    16    15    16    1
    17    25    20   ar
    18    22    21   ar
    19    12    11    1
    20    11     9    1
    21     6     7   ar
    22     6     5   ar
    23     7     2   ar
    24    20    21   ar
    25    20    18    1
    26     9     8    1
    27     9    10    2
    28     8     5    1
    29     5     4   ar
    30     2     1    1
    31     2     3   ar
    32     1    18    1
    33    18    19    2
    34     4     3   ar
@<TRIPOS>MOLECULE
./../dock_file/temp/5d5b8a25041b0e88f5bdd75f41f2935b/Camostat_Ligand_CID_2536:hmTMPRSS11_B:20230418100831/Camostat_Ligand_CID_2536:hmTMPRSS11_B_out_2.pdbqt
 33 34 0 0 0
SMALL
GASTEIGER

@<TRIPOS>ATOM
      1  O          9.8930   20.1720   11.2760 O.3     1  LIG1       -0.2750
      2  C          9.1400   20.9190   12.1290 C.ar    1  LIG1        0.0790
      3  C          9.6210   21.2210   13.4030 C.ar    1  LIG1        0.0380
      4  C          8.8490   21.9860   14.2770 C.ar    1  LIG1        0.0100
      5  C          7.5970   22.4510   13.8760 C.ar    1  LIG1       -0.0490
      6  C          7.1160   22.1490   12.6020 C.ar    1  LIG1        0.0100
      7  C          7.8870   21.3830   11.7280 C.ar    1  LIG1        0.0380
      8  C          6.7630   23.2790   14.8200 C.3     1  LIG1        0.1490
      9  C          6.1800   22.4690   15.9550 C.2     1  LIG1        0.2630
     10  O          5.1540   21.8060   15.8990 O.2     1  LIG1       -0.2650
     11  O          6.9830   22.5920   17.0650 O.3     1  LIG1       -0.3120
     12  C          7.3070   23.9090   17.4580 C.3     1  LIG1        0.2810
     13  C          8.3400   23.8690   18.5650 C.2     1  LIG1        0.2430
     14  O          8.7760   22.7750   18.9320 O.2     1  LIG1       -0.2710
     15  N          8.7490   25.0890   19.1050 N.am    1  LIG1       -0.3590
     16  C          8.2680   26.4040   18.6880 C.3     1  LIG1        0.1520
     17  C          9.7470   25.1030   20.1670 C.3     1  LIG1        0.1520
     18  C         10.0250   18.8320   11.6490 C.2     1  LIG1        0.2980
     19  O          9.1250   18.0060   11.6700 O.2     1  LIG1       -0.2590
     20  C         11.4220   18.5220   12.0450 C.ar    1  LIG1        0.0400
     21  C         12.4770   18.8560   11.1970 C.ar    1  LIG1        0.0200
     22  C         13.7900   18.5650   11.5690 C.ar    1  LIG1        0.0330
     23  C         14.0470   17.9390   12.7890 C.ar    1  LIG1        0.0750
     24  C         12.9920   17.6050   13.6380 C.ar    1  LIG1        0.0330
     25  C         11.6790   17.8960   13.2650 C.ar    1  LIG1        0.0200
     26  N         15.3640   17.6480   13.1620 N.pl3   1  LIG1       -0.0660
     27  C         15.9470   16.5900   12.6520 C.cat   1  LIG1        0.6920
     28  N         15.4100   15.6900   11.7580 N.pl3   1  LIG1       -0.2330
     29  N         17.2400   16.2680   12.9920 N.pl3   1  LIG1       -0.2330
     30  H         14.4880   15.8070   11.4350 H       1  LIG1        0.1740
     31  H         15.9480   14.9270   11.4430 H       1  LIG1        0.1740
     32  H         17.7380   16.8350   13.6250 H       1  LIG1        0.1740
     33  H         17.6680   15.4720   12.6020 H       1  LIG1        0.1740
@<TRIPOS>BOND
     1    21    22   ar
     2    21    20   ar
     3     1    18    1
     4     1     2    1
     5    30    28    1
     6    31    28    1
     7    22    23   ar
     8    18    19    2
     9    18    20    1
    10     7     2   ar
    11     7     6   ar
    12    28    27    1
    13    20    25   ar
    14     2     3   ar
    15    33    29    1
    16     6     5   ar
    17    27    29    1
    18    27    26    2
    19    23    26    1
    20    23    24   ar
    21    29    32    1
    22    25    24   ar
    23     3     4   ar
    24     5     4   ar
    25     5     8    1
    26     8     9    1
    27    10     9    2
    28     9    11    1
    29    11    12    1
    30    12    13    1
    31    13    14    2
    32    13    15   am
    33    16    15    1
    34    15    17    1
@<TRIPOS>MOLECULE
./../dock_file/temp/5d5b8a25041b0e88f5bdd75f41f2935b/Camostat_Ligand_CID_2536:hmTMPRSS11_B:20230418100831/Camostat_Ligand_CID_2536:hmTMPRSS11_B_out_2.pdbqt
 33 34 0 0 0
SMALL
GASTEIGER

@<TRIPOS>ATOM
      1  O         13.0400   16.5280   12.0750 O.3     1  LIG1       -0.2750
      2  C         14.1000   16.8140   11.2710 C.ar    1  LIG1        0.0790
      3  C         14.1650   18.0430   10.6120 C.ar    1  LIG1        0.0380
      4  C         15.2510   18.3350    9.7890 C.ar    1  LIG1        0.0100
      5  C         16.2740   17.4010    9.6240 C.ar    1  LIG1       -0.0490
      6  C         16.2080   16.1720   10.2820 C.ar    1  LIG1        0.0100
      7  C         15.1220   15.8790   11.1060 C.ar    1  LIG1        0.0380
      8  C         17.4480   17.7170    8.7340 C.3     1  LIG1        0.1490
      9  C         17.1290   17.5720    7.2640 C.2     1  LIG1        0.2630
     10  O         16.3490   18.2740    6.6360 O.2     1  LIG1       -0.2650
     11  O         17.8520   16.5280    6.7380 O.3     1  LIG1       -0.3120
     12  C         17.1670   15.3010    6.5990 C.3     1  LIG1        0.2810
     13  C         17.8980   14.4190    5.6090 C.2     1  LIG1        0.2430
     14  O         19.1100   14.2410    5.7550 O.2     1  LIG1       -0.2710
     15  N         17.1460   13.8450    4.5830 N.am    1  LIG1       -0.3590
     16  C         15.7090   14.0200    4.3860 C.3     1  LIG1        0.1520
     17  C         17.8040   12.9810    3.6110 C.3     1  LIG1        0.1520
     18  C         12.8780   17.4080   13.1470 C.2     1  LIG1        0.2980
     19  O         13.6550   17.5470   14.0790 O.2     1  LIG1       -0.2590
     20  C         11.6070   18.1670   13.0300 C.ar    1  LIG1        0.0400
     21  C         11.2620   19.1040   14.0030 C.ar    1  LIG1        0.0200
     22  C         10.0680   19.8170   13.8930 C.ar    1  LIG1        0.0330
     23  C          9.2190   19.5930   12.8090 C.ar    1  LIG1        0.0750
     24  C          9.5630   18.6550   11.8350 C.ar    1  LIG1        0.0330
     25  C         10.7570   17.9420   11.9460 C.ar    1  LIG1        0.0200
     26  N          8.0210   20.3080   12.6990 N.pl3   1  LIG1       -0.0660
     27  C          8.0160   21.4350   12.0290 C.cat   1  LIG1        0.6920
     28  N          9.0830   22.0330   11.3930 N.pl3   1  LIG1       -0.2330
     29  N          6.8610   22.1680   11.8960 N.pl3   1  LIG1       -0.2330
     30  H          9.9700   21.6080   11.4140 H       1  LIG1        0.1740
     31  H          8.9570   22.8870   10.9190 H       1  LIG1        0.1740
     32  H          6.0250   21.8480   12.3060 H       1  LIG1        0.1740
     33  H          6.8700   23.0130   11.3910 H       1  LIG1        0.1740
@<TRIPOS>BOND
     1    17    15    1
     2    16    15    1
     3    15    13   am
     4    13    14    2
     5    13    12    1
     6    12    11    1
     7    10     9    2
     8    11     9    1
     9     9     8    1
    10     8     5    1
    11     5     4   ar
    12     5     6   ar
    13     4     3   ar
    14     6     7   ar
    15     3     2   ar
    16    31    28    1
    17     7     2   ar
    18     2     1    1
    19    33    29    1
    20    28    30    1
    21    28    27    1
    22    24    25   ar
    23    24    23   ar
    24    29    27    1
    25    29    32    1
    26    25    20   ar
    27    27    26    2
    28     1    18    1
    29    26    23    1
    30    23    22   ar
    31    20    18    1
    32    20    21   ar
    33    18    19    2
    34    22    21   ar
@<TRIPOS>MOLECULE
./../dock_file/temp/5d5b8a25041b0e88f5bdd75f41f2935b/Camostat_Ligand_CID_2536:hmTMPRSS11_B:20230418100831/Camostat_Ligand_CID_2536:hmTMPRSS11_B_out_2.pdbqt
 33 34 0 0 0
SMALL
GASTEIGER

@<TRIPOS>ATOM
      1  O         18.1600   17.2640    9.0100 O.3     1  LIG1       -0.2750
      2  C         19.1750   16.4870    9.4750 C.ar    1  LIG1        0.0790
      3  C         20.1170   15.9620    8.5890 C.ar    1  LIG1        0.0380
      4  C         21.1570   15.1660    9.0670 C.ar    1  LIG1        0.0100
      5  C         21.2570   14.8940   10.4320 C.ar    1  LIG1       -0.0490
      6  C         20.3160   15.4190   11.3180 C.ar    1  LIG1        0.0100
      7  C         19.2750   16.2150   10.8400 C.ar    1  LIG1        0.0380
      8  C         22.3810   14.0340   10.9480 C.3     1  LIG1        0.1490
      9  C         23.6380   14.8190   11.2390 C.2     1  LIG1        0.2630
     10  O         24.4850   15.1330   10.4140 O.2     1  LIG1       -0.2650
     11  O         23.6860   15.1300   12.5780 O.3     1  LIG1       -0.3120
     12  C         24.5560   14.3500   13.3690 C.3     1  LIG1        0.2810
     13  C         24.8100   15.0500   14.6880 C.2     1  LIG1        0.2430
     14  O         25.0460   16.2610   14.6820 O.2     1  LIG1       -0.2710
     15  N         24.7530   14.2750   15.8480 N.am    1  LIG1       -0.3590
     16  C         24.4630   12.8440   15.8970 C.3     1  LIG1        0.1520
     17  C         24.9820   14.9060   17.1420 C.3     1  LIG1        0.1520
     18  C         17.0250   16.5510    8.6140 C.2     1  LIG1        0.2980
     19  O         16.9290   15.8670    7.6070 O.2     1  LIG1       -0.2590
     20  C         15.9120   16.7390    9.5790 C.ar    1  LIG1        0.0400
     21  C         15.1910   17.9330    9.5880 C.ar    1  LIG1        0.0200
     22  C         14.1450   18.1090   10.4940 C.ar    1  LIG1        0.0330
     23  C         13.8200   17.0920   11.3910 C.ar    1  LIG1        0.0750
     24  C         14.5410   15.8980   11.3820 C.ar    1  LIG1        0.0330
     25  C         15.5870   15.7210   10.4760 C.ar    1  LIG1        0.0200
     26  N         12.7710   17.2690   12.2990 N.pl3   1  LIG1       -0.0660
     27  C         13.0530   17.4350   13.5690 C.cat   1  LIG1        0.6920
     28  N         14.3030   17.4590   14.1500 N.pl3   1  LIG1       -0.2330
     29  N         12.0510   17.6130   14.4940 N.pl3   1  LIG1       -0.2330
     30  H         15.1060   17.3430   13.5940 H       1  LIG1        0.1740
     31  H         14.3910   17.5920   15.1220 H       1  LIG1        0.1740
     32  H         11.1110   17.6160   14.2060 H       1  LIG1        0.1740
     33  H         12.2760   17.7370   15.4440 H       1  LIG1        0.1740
@<TRIPOS>BOND
     1    19    18    2
     2     3     4   ar
     3     3     2   ar
     4    18     1    1
     5    18    20    1
     6     1     2    1
     7     4     5   ar
     8     2     7   ar
     9    20    21   ar
    10    20    25   ar
    11    21    22   ar
    12    10     9    2
    13     5     8    1
    14     5     6   ar
    15    25    24   ar
    16    22    23   ar
    17     7     6   ar
    18     8     9    1
    19     9    11    1
    20    24    23   ar
    21    23    26    1
    22    26    27    2
    23    11    12    1
    24    12    13    1
    25    27    28    1
    26    27    29    1
    27    30    28    1
    28    28    31    1
    29    32    29    1
    30    29    33    1
    31    14    13    2
    32    13    15   am
    33    15    16    1
    34    15    17    1
@<TRIPOS>MOLECULE
./../dock_file/temp/5d5b8a25041b0e88f5bdd75f41f2935b/Camostat_Ligand_CID_2536:hmTMPRSS11_B:20230418100831/Camostat_Ligand_CID_2536:hmTMPRSS11_B_out_2.pdbqt
 33 34 0 0 0
SMALL
GASTEIGER

@<TRIPOS>ATOM
      1  O         12.5040   16.7610   12.9950 O.3     1  LIG1       -0.2750
      2  C         11.5450   17.7270   12.9980 C.ar    1  LIG1        0.0790
      3  C         10.7020   17.8780   11.8970 C.ar    1  LIG1        0.0380
      4  C          9.7200   18.8680   11.9010 C.ar    1  LIG1        0.0100
      5  C          9.5790   19.7060   13.0070 C.ar    1  LIG1       -0.0490
      6  C         10.4210   19.5550   14.1080 C.ar    1  LIG1        0.0100
      7  C         11.4040   18.5650   14.1040 C.ar    1  LIG1        0.0380
      8  C          8.5170   20.7760   13.0120 C.3     1  LIG1        0.1490
      9  C          9.0360   22.1180   13.4710 C.2     1  LIG1        0.2630
     10  O          9.9140   22.7660   12.9190 O.2     1  LIG1       -0.2650
     11  O          8.3670   22.5040   14.6090 O.3     1  LIG1       -0.3120
     12  C          7.5790   23.6710   14.5040 C.3     1  LIG1        0.2810
     13  C          6.1300   23.3350   14.7920 C.2     1  LIG1        0.2430
     14  O          5.4740   22.7480   13.9270 O.2     1  LIG1       -0.2710
     15  N          5.6200   23.7060   16.0360 N.am    1  LIG1       -0.3590
     16  C          6.3680   24.3880   17.0900 C.3     1  LIG1        0.1520
     17  C          4.2340   23.3970   16.3630 C.3     1  LIG1        0.1520
     18  C         13.8100   17.2470   13.0950 C.2     1  LIG1        0.2980
     19  O         14.3820   17.5420   14.1330 O.2     1  LIG1       -0.2590
     20  C         14.4340   17.3850   11.7550 C.ar    1  LIG1        0.0400
     21  C         15.1530   16.3220   11.2080 C.ar    1  LIG1        0.0200
     22  C         15.7390   16.4510    9.9490 C.ar    1  LIG1        0.0330
     23  C         15.6080   17.6430    9.2370 C.ar    1  LIG1        0.0750
     24  C         14.8890   18.7060    9.7830 C.ar    1  LIG1        0.0330
     25  C         14.3030   18.5770   11.0430 C.ar    1  LIG1        0.0200
     26  N         16.1960   17.7720    7.9740 N.pl3   1  LIG1       -0.0660
     27  C         17.4310   18.2050    7.8920 C.cat   1  LIG1        0.6920
     28  N         18.2610   18.5650    8.9320 N.pl3   1  LIG1       -0.2330
     29  N         18.0460   18.3460    6.6700 N.pl3   1  LIG1       -0.2330
     30  H         17.9390   18.5110    9.8600 H       1  LIG1        0.1740
     31  H         19.1750   18.8790    8.7450 H       1  LIG1        0.1740
     32  H         17.5590   18.1200    5.8450 H       1  LIG1        0.1740
     33  H         18.9740   18.6720    6.6210 H       1  LIG1        0.1740
@<TRIPOS>BOND
     1    32    29    1
     2    33    29    1
     3    29    27    1
     4    27    26    2
     5    27    28    1
     6    26    23    1
     7    31    28    1
     8    28    30    1
     9    23    24   ar
    10    23    22   ar
    11    24    25   ar
    12    22    21   ar
    13    25    20   ar
    14    21    20   ar
    15    20    18    1
    16     3     4   ar
    17     3     2   ar
    18     4     5   ar
    19    10     9    2
    20     1     2    1
    21     1    18    1
    22     2     7   ar
    23     5     8    1
    24     5     6   ar
    25     8     9    1
    26    18    19    2
    27     9    11    1
    28    14    13    2
    29     7     6   ar
    30    12    11    1
    31    12    13    1
    32    13    15   am
    33    15    17    1
    34    15    16    1
@<TRIPOS>MOLECULE
./../dock_file/temp/5d5b8a25041b0e88f5bdd75f41f2935b/Camostat_Ligand_CID_2536:hmTMPRSS11_B:20230418100831/Camostat_Ligand_CID_2536:hmTMPRSS11_B_out_2.pdbqt
 33 34 0 0 0
SMALL
GASTEIGER

@<TRIPOS>ATOM
      1  O         12.9640   16.5470   12.1570 O.3     1  LIG1       -0.2750
      2  C         14.0150   16.7070   11.3080 C.ar    1  LIG1        0.0790
      3  C         14.1050   17.8520   10.5150 C.ar    1  LIG1        0.0380
      4  C         15.1820   18.0150    9.6450 C.ar    1  LIG1        0.0100
      5  C         16.1710   17.0340    9.5680 C.ar    1  LIG1       -0.0490
      6  C         16.0820   15.8900   10.3600 C.ar    1  LIG1        0.0100
      7  C         15.0040   15.7260   11.2310 C.ar    1  LIG1        0.0380
      8  C         17.3360   17.2110    8.6280 C.3     1  LIG1        0.1490
      9  C         17.0620   16.6710    7.2440 C.2     1  LIG1        0.2630
     10  O         17.1360   15.4950    6.9140 O.2     1  LIG1       -0.2650
     11  O         16.7160   17.7050    6.4070 O.3     1  LIG1       -0.3120
     12  C         17.6980   18.6980    6.2030 C.3     1  LIG1        0.2810
     13  C         18.7640   18.1740    5.2630 C.2     1  LIG1        0.2430
     14  O         18.4340   17.8280    4.1260 O.2     1  LIG1       -0.2710
     15  N         20.0740   18.1220    5.7420 N.am    1  LIG1       -0.3590
     16  C         20.5050   18.5370    7.0750 C.3     1  LIG1        0.1520
     17  C         21.1350   17.6330    4.8720 C.3     1  LIG1        0.1520
     18  C         12.8610   17.5380   13.1370 C.2     1  LIG1        0.2980
     19  O         13.6960   17.7830   13.9930 O.2     1  LIG1       -0.2590
     20  C         11.5730   18.2700   13.0240 C.ar    1  LIG1        0.0400
     21  C         11.2330   19.2320   13.9740 C.ar    1  LIG1        0.0200
     22  C         10.0240   19.9200   13.8680 C.ar    1  LIG1        0.0330
     23  C          9.1550   19.6450   12.8120 C.ar    1  LIG1        0.0750
     24  C          9.4950   18.6830   11.8620 C.ar    1  LIG1        0.0330
     25  C         10.7040   17.9950   11.9680 C.ar    1  LIG1        0.0200
     26  N          7.9430   20.3350   12.7060 N.pl3   1  LIG1       -0.0660
     27  C          7.8830   21.3970   11.9400 C.cat   1  LIG1        0.6920
     28  N          8.9030   21.9460   11.1930 N.pl3   1  LIG1       -0.2330
     29  N          6.7100   22.1030   11.8080 N.pl3   1  LIG1       -0.2330
     30  H          9.7960   21.5340   11.2020 H       1  LIG1        0.1740
     31  H          8.7380   22.7530   10.6520 H       1  LIG1        0.1740
     32  H          5.9040   21.8130   12.2910 H       1  LIG1        0.1740
     33  H          6.6780   22.8990   11.2290 H       1  LIG1        0.1740
@<TRIPOS>BOND
     1    14    13    2
     2    17    15    1
     3    13    15   am
     4    13    12    1
     5    15    16    1
     6    12    11    1
     7    11     9    1
     8    10     9    2
     9     9     8    1
    10     8     5    1
    11     5     4   ar
    12     5     6   ar
    13     4     3   ar
    14     6     7   ar
    15     3     2   ar
    16    31    28    1
    17    28    30    1
    18    28    27    1
    19    33    29    1
    20     7     2   ar
    21     2     1    1
    22    29    27    1
    23    29    32    1
    24    24    25   ar
    25    24    23   ar
    26    27    26    2
    27    25    20   ar
    28     1    18    1
    29    26    23    1
    30    23    22   ar
    31    20    18    1
    32    20    21   ar
    33    18    19    2
    34    22    21   ar
