@<TRIPOS>MOLECULE
./../dock_file/temp/5d5b8a25041b0e88f5bdd75f41f2935b/Camostat_Ligand_CID_2536:hmTMPRSS11_B:20230418100831/Camostat_Ligand_CID_2536:hmTMPRSS11_B_out_1.pdbqt
 33 34 0 0 0
SMALL
GASTEIGER

@<TRIPOS>ATOM
      1  O         16.4410   -2.0570   32.0370 O.3     1  LIG1       -0.2750
      2  C         16.9910   -0.8240   31.8630 C.ar    1  LIG1        0.0790
      3  C         17.8230   -0.2860   32.8460 C.ar    1  LIG1        0.0380
      4  C         18.3860    0.9770   32.6670 C.ar    1  LIG1        0.0100
      5  C         18.1180    1.7030   31.5060 C.ar    1  LIG1       -0.0490
      6  C         17.2860    1.1650   30.5240 C.ar    1  LIG1        0.0100
      7  C         16.7230   -0.0990   30.7030 C.ar    1  LIG1        0.0380
      8  C         18.7270    3.0680   31.3140 C.3     1  LIG1        0.1490
      9  C         20.2250    3.0780   31.5100 C.2     1  LIG1        0.2630
     10  O         21.0360    2.4930   30.8060 O.2     1  LIG1       -0.2650
     11  O         20.5390    3.8490   32.6040 O.3     1  LIG1       -0.3120
     12  C         19.6700    4.9280   32.8780 C.3     1  LIG1        0.2810
     13  C         20.3700    5.9320   33.7690 C.2     1  LIG1        0.2430
     14  O         21.5400    6.2330   33.5190 O.2     1  LIG1       -0.2710
     15  N         19.6380    6.4710   34.8280 N.am    1  LIG1       -0.3590
     16  C         18.2480    6.1510   35.1470 C.3     1  LIG1        0.1520
     17  C         20.2650    7.4470   35.7090 C.3     1  LIG1        0.1520
     18  C         17.3340   -3.1150   31.8560 C.2     1  LIG1        0.2980
     19  O         18.2500   -3.4110   32.6080 O.2     1  LIG1       -0.2590
     20  C         17.0450   -3.8520   30.5990 C.ar    1  LIG1        0.0400
     21  C         15.7260   -4.0310   30.1840 C.ar    1  LIG1        0.0200
     22  C         15.4540   -4.7220   29.0040 C.ar    1  LIG1        0.0330
     23  C         16.5010   -5.2350   28.2390 C.ar    1  LIG1        0.0750
     24  C         17.8210   -5.0560   28.6530 C.ar    1  LIG1        0.0330
     25  C         18.0920   -4.3650   29.8340 C.ar    1  LIG1        0.0200
     26  N         16.2280   -5.9280   27.0550 N.pl3   1  LIG1       -0.0660
     27  C         15.8780   -5.2490   25.9890 C.cat   1  LIG1        0.6920
     28  N         15.7370   -3.8830   25.8790 N.pl3   1  LIG1       -0.2330
     29  N         15.6010   -5.8930   24.8050 N.pl3   1  LIG1       -0.2330
     30  H         15.9060   -3.3060   26.6580 H       1  LIG1        0.1740
     31  H         15.4660   -3.4840   25.0200 H       1  LIG1        0.1740
     32  H         15.6660   -6.8730   24.7520 H       1  LIG1        0.1740
     33  H         15.3400   -5.3720   24.0120 H       1  LIG1        0.1740
@<TRIPOS>BOND
     1    33    29    1
     2    32    29    1
     3    29    27    1
     4    31    28    1
     5    28    27    1
     6    28    30    1
     7    27    26    2
     8    26    23    1
     9    23    24   ar
    10    23    22   ar
    11    24    25   ar
    12    22    21   ar
    13    25    20   ar
    14    21    20   ar
    15     6     7   ar
    16     6     5   ar
    17    20    18    1
    18     7     2   ar
    19    10     9    2
    20     8     5    1
    21     8     9    1
    22     5     4   ar
    23     9    11    1
    24    18     1    1
    25    18    19    2
    26     2     1    1
    27     2     3   ar
    28    11    12    1
    29     4     3   ar
    30    12    13    1
    31    14    13    2
    32    13    15   am
    33    15    16    1
    34    15    17    1
@<TRIPOS>MOLECULE
./../dock_file/temp/5d5b8a25041b0e88f5bdd75f41f2935b/Camostat_Ligand_CID_2536:hmTMPRSS11_B:20230418100831/Camostat_Ligand_CID_2536:hmTMPRSS11_B_out_1.pdbqt
 33 34 0 0 0
SMALL
GASTEIGER

@<TRIPOS>ATOM
      1  O         20.1500    2.2320   32.9610 O.3     1  LIG1       -0.2750
      2  C         19.0420    1.6250   32.4570 C.ar    1  LIG1        0.0790
      3  C         18.4750    2.0820   31.2670 C.ar    1  LIG1        0.0380
      4  C         17.3390    1.4600   30.7520 C.ar    1  LIG1        0.0100
      5  C         16.7690    0.3790   31.4250 C.ar    1  LIG1       -0.0490
      6  C         17.3360   -0.0790   32.6140 C.ar    1  LIG1        0.0100
      7  C         18.4730    0.5440   33.1300 C.ar    1  LIG1        0.0380
      8  C         15.5410   -0.2940   30.8680 C.3     1  LIG1        0.1490
      9  C         15.8030   -1.0110   29.5640 C.2     1  LIG1        0.2630
     10  O         16.2280   -0.4920   28.5420 O.2     1  LIG1       -0.2650
     11  O         15.4900   -2.3430   29.7020 O.3     1  LIG1       -0.3120
     12  C         16.5660   -3.2100   29.9960 C.3     1  LIG1        0.2810
     13  C         16.9320   -4.0030   28.7590 C.2     1  LIG1        0.2430
     14  O         16.3080   -3.7970   27.7150 O.2     1  LIG1       -0.2710
     15  N         17.9720   -4.9270   28.8730 N.am    1  LIG1       -0.3590
     16  C         18.7430   -5.1890   30.0870 C.3     1  LIG1        0.1520
     17  C         18.3670   -5.7080   27.7080 C.3     1  LIG1        0.1520
     18  C         20.0030    2.7050   34.2670 C.2     1  LIG1        0.2980
     19  O         20.2730    2.0840   35.2840 O.2     1  LIG1       -0.2590
     20  C         19.4500    4.0830   34.2790 C.ar    1  LIG1        0.0400
     21  C         19.6690    4.9310   33.1940 C.ar    1  LIG1        0.0200
     22  C         19.1480    6.2250   33.2040 C.ar    1  LIG1        0.0330
     23  C         18.4100    6.6720   34.3000 C.ar    1  LIG1        0.0750
     24  C         18.1910    5.8230   35.3860 C.ar    1  LIG1        0.0330
     25  C         18.7110    4.5290   35.3750 C.ar    1  LIG1        0.0200
     26  N         17.8880    7.9700   34.3110 N.pl3   1  LIG1       -0.0660
     27  C         18.6200    8.9430   34.7970 C.cat   1  LIG1        0.6920
     28  N         19.8910    8.8500   35.3220 N.pl3   1  LIG1       -0.2330
     29  N         18.1450   10.2330   34.8250 N.pl3   1  LIG1       -0.2330
     30  H         20.3450    7.9780   35.3600 H       1  LIG1        0.1740
     31  H         20.3440    9.6560   35.6600 H       1  LIG1        0.1740
     32  H         17.2460   10.4340   34.4780 H       1  LIG1        0.1740
     33  H         18.7040   10.9550   35.1930 H       1  LIG1        0.1740
@<TRIPOS>BOND
     1    17    15    1
     2    14    13    2
     3    10     9    2
     4    13    15   am
     5    13    12    1
     6    15    16    1
     7     9    11    1
     8     9     8    1
     9    11    12    1
    10     4     3   ar
    11     4     5   ar
    12     8     5    1
    13     3     2   ar
    14     5     6   ar
    15     2     1    1
    16     2     7   ar
    17     6     7   ar
    18     1    18    1
    19    21    22   ar
    20    21    20   ar
    21    22    23   ar
    22    18    20    1
    23    18    19    2
    24    20    25   ar
    25    23    26    1
    26    23    24   ar
    27    26    27    2
    28    32    29    1
    29    27    29    1
    30    27    28    1
    31    29    33    1
    32    28    30    1
    33    28    31    1
    34    25    24   ar
@<TRIPOS>MOLECULE
./../dock_file/temp/5d5b8a25041b0e88f5bdd75f41f2935b/Camostat_Ligand_CID_2536:hmTMPRSS11_B:20230418100831/Camostat_Ligand_CID_2536:hmTMPRSS11_B_out_1.pdbqt
 33 34 0 0 0
SMALL
GASTEIGER

@<TRIPOS>ATOM
      1  O         15.3540   -1.6540   31.8380 O.3     1  LIG1       -0.2750
      2  C         16.2380   -0.6240   31.7330 C.ar    1  LIG1        0.0790
      3  C         16.2290    0.1900   30.6000 C.ar    1  LIG1        0.0380
      4  C         17.1340    1.2450   30.4920 C.ar    1  LIG1        0.0100
      5  C         18.0490    1.4870   31.5180 C.ar    1  LIG1       -0.0490
      6  C         18.0570    0.6730   32.6510 C.ar    1  LIG1        0.0100
      7  C         17.1510   -0.3820   32.7580 C.ar    1  LIG1        0.0380
      8  C         19.0270    2.6270   31.4020 C.3     1  LIG1        0.1490
      9  C         19.7910    2.8800   32.6800 C.2     1  LIG1        0.2630
     10  O         19.4760    3.6850   33.5460 O.2     1  LIG1       -0.2650
     11  O         20.8970    2.0650   32.7230 O.3     1  LIG1       -0.3120
     12  C         22.1010    2.6690   33.1450 C.3     1  LIG1        0.2810
     13  C         23.1640    1.6070   33.3360 C.2     1  LIG1        0.2430
     14  O         23.2230    1.0120   34.4160 O.2     1  LIG1       -0.2710
     15  N         24.0190    1.3540   32.2620 N.am    1  LIG1       -0.3590
     16  C         23.9710    2.0250   30.9650 C.3     1  LIG1        0.1520
     17  C         25.0520    0.3340   32.3950 C.3     1  LIG1        0.1520
     18  C         15.9490   -2.9050   32.0200 C.2     1  LIG1        0.2980
     19  O         16.3740   -3.3450   33.0770 O.2     1  LIG1       -0.2590
     20  C         16.0210   -3.6550   30.7400 C.ar    1  LIG1        0.0400
     21  C         17.2230   -3.7190   30.0370 C.ar    1  LIG1        0.0200
     22  C         17.2910   -4.4240   28.8350 C.ar    1  LIG1        0.0330
     23  C         16.1570   -5.0630   28.3350 C.ar    1  LIG1        0.0750
     24  C         14.9530   -4.9980   29.0380 C.ar    1  LIG1        0.0330
     25  C         14.8850   -4.2940   30.2400 C.ar    1  LIG1        0.0200
     26  N         16.2250   -5.7690   27.1300 N.pl3   1  LIG1       -0.0660
     27  C         15.9630   -5.1390   26.0100 C.cat   1  LIG1        0.6920
     28  N         15.6130   -3.8140   25.8600 N.pl3   1  LIG1       -0.2330
     29  N         16.0190   -5.7960   24.8040 N.pl3   1  LIG1       -0.2330
     30  H         15.5370   -3.2320   26.6500 H       1  LIG1        0.1740
     31  H         15.4380   -3.4500   24.9620 H       1  LIG1        0.1740
     32  H         16.2580   -6.7500   24.7740 H       1  LIG1        0.1740
     33  H         15.8200   -5.3120   23.9700 H       1  LIG1        0.1740
@<TRIPOS>BOND
     1    33    29    1
     2    32    29    1
     3    29    27    1
     4    31    28    1
     5    28    27    1
     6    28    30    1
     7    27    26    2
     8    26    23    1
     9    23    22   ar
    10    23    24   ar
    11    22    21   ar
    12    24    25   ar
    13    21    20   ar
    14    25    20   ar
    15     4     3   ar
    16     4     5   ar
    17     3     2   ar
    18    20    18    1
    19    16    15    1
    20     8     5    1
    21     8     9    1
    22     5     6   ar
    23     2     1    1
    24     2     7   ar
    25     1    18    1
    26    18    19    2
    27    15    17    1
    28    15    13   am
    29     6     7   ar
    30     9    11    1
    31     9    10    2
    32    11    12    1
    33    12    13    1
    34    13    14    2
@<TRIPOS>MOLECULE
./../dock_file/temp/5d5b8a25041b0e88f5bdd75f41f2935b/Camostat_Ligand_CID_2536:hmTMPRSS11_B:20230418100831/Camostat_Ligand_CID_2536:hmTMPRSS11_B_out_1.pdbqt
 33 34 0 0 0
SMALL
GASTEIGER

@<TRIPOS>ATOM
      1  O         11.8440   -6.2860   34.5310 O.3     1  LIG1       -0.2750
      2  C         12.7230   -6.0090   33.5300 C.ar    1  LIG1        0.0790
      3  C         12.2520   -5.6370   32.2700 C.ar    1  LIG1        0.0380
      4  C         13.1520   -5.3530   31.2450 C.ar    1  LIG1        0.0100
      5  C         14.5250   -5.4390   31.4780 C.ar    1  LIG1       -0.0490
      6  C         14.9970   -5.8110   32.7370 C.ar    1  LIG1        0.0100
      7  C         14.0950   -6.0950   33.7640 C.ar    1  LIG1        0.0380
      8  C         15.4990   -5.1320   30.3700 C.3     1  LIG1        0.1490
      9  C         15.5120   -3.6710   29.9850 C.2     1  LIG1        0.2630
     10  O         15.2030   -2.7430   30.7180 O.2     1  LIG1       -0.2650
     11  O         15.9280   -3.5440   28.6810 O.3     1  LIG1       -0.3120
     12  C         16.4770   -4.7000   28.0850 C.3     1  LIG1        0.2810
     13  C         15.7890   -4.9680   26.7630 C.2     1  LIG1        0.2430
     14  O         14.6630   -4.5000   26.5750 O.2     1  LIG1       -0.2710
     15  N         16.4810   -5.7300   25.8210 N.am    1  LIG1       -0.3590
     16  C         17.8200   -6.2870   26.0010 C.3     1  LIG1        0.1520
     17  C         15.8630   -6.0070   24.5300 C.3     1  LIG1        0.1520
     18  C         10.9620   -5.2440   34.8270 C.2     1  LIG1        0.2980
     19  O          9.7860   -5.1910   34.5010 O.2     1  LIG1       -0.2590
     20  C         11.6420   -4.1680   35.5920 C.ar    1  LIG1        0.0400
     21  C         12.3760   -4.4820   36.7350 C.ar    1  LIG1        0.0200
     22  C         13.0150   -3.4720   37.4540 C.ar    1  LIG1        0.0330
     23  C         12.9190   -2.1470   37.0300 C.ar    1  LIG1        0.0750
     24  C         12.1840   -1.8310   35.8860 C.ar    1  LIG1        0.0330
     25  C         11.5450   -2.8420   35.1680 C.ar    1  LIG1        0.0200
     26  N         13.5600   -1.1330   37.7500 N.pl3   1  LIG1       -0.0660
     27  C         14.6620   -0.6120   37.2680 C.cat   1  LIG1        0.6920
     28  N         15.2990   -0.9480   36.0930 N.pl3   1  LIG1       -0.2330
     29  N         15.3220    0.3860   37.9450 N.pl3   1  LIG1       -0.2330
     30  H         14.9270   -1.6510   35.5140 H       1  LIG1        0.1740
     31  H         16.1280   -0.4840   35.8330 H       1  LIG1        0.1740
     32  H         14.9680    0.7180   38.8010 H       1  LIG1        0.1740
     33  H         16.1490    0.7700   37.5720 H       1  LIG1        0.1740
@<TRIPOS>BOND
     1    17    15    1
     2    15    16    1
     3    15    13   am
     4    14    13    2
     5    13    12    1
     6    12    11    1
     7    11     9    1
     8     9     8    1
     9     9    10    2
    10     8     5    1
    11     4     5   ar
    12     4     3   ar
    13     5     6   ar
    14     3     2   ar
    15     6     7   ar
    16     2     7   ar
    17     2     1    1
    18    19    18    2
    19     1    18    1
    20    18    20    1
    21    25    20   ar
    22    25    24   ar
    23    30    28    1
    24    20    21   ar
    25    31    28    1
    26    24    23   ar
    27    28    27    1
    28    21    22   ar
    29    23    22   ar
    30    23    26    1
    31    27    26    2
    32    27    29    1
    33    33    29    1
    34    29    32    1
@<TRIPOS>MOLECULE
./../dock_file/temp/5d5b8a25041b0e88f5bdd75f41f2935b/Camostat_Ligand_CID_2536:hmTMPRSS11_B:20230418100831/Camostat_Ligand_CID_2536:hmTMPRSS11_B_out_1.pdbqt
 33 34 0 0 0
SMALL
GASTEIGER

@<TRIPOS>ATOM
      1  O         19.5570    3.4140   31.3890 O.3     1  LIG1       -0.2750
      2  C         18.7400    2.3370   31.5470 C.ar    1  LIG1        0.0790
      3  C         17.7880    2.0330   30.5720 C.ar    1  LIG1        0.0380
      4  C         16.9510    0.9310   30.7350 C.ar    1  LIG1        0.0100
      5  C         17.0650    0.1300   31.8720 C.ar    1  LIG1       -0.0490
      6  C         18.0160    0.4330   32.8460 C.ar    1  LIG1        0.0100
      7  C         18.8540    1.5370   32.6830 C.ar    1  LIG1        0.0380
      8  C         16.1600   -1.0620   32.0480 C.3     1  LIG1        0.1490
      9  C         16.1430   -1.9720   30.8420 C.2     1  LIG1        0.2630
     10  O         15.3030   -1.9560   29.9530 O.2     1  LIG1       -0.2650
     11  O         17.2210   -2.8240   30.8940 O.3     1  LIG1       -0.3120
     12  C         16.9410   -4.1970   30.7220 C.3     1  LIG1        0.2810
     13  C         17.8240   -4.7640   29.6300 C.2     1  LIG1        0.2430
     14  O         19.0320   -4.8900   29.8480 O.2     1  LIG1       -0.2710
     15  N         17.2100   -5.1220   28.4290 N.am    1  LIG1       -0.3590
     16  C         15.7830   -5.0020   28.1380 C.3     1  LIG1        0.1520
     17  C         18.0160   -5.6800   27.3510 C.3     1  LIG1        0.1520
     18  C         20.3170    3.7290   32.5170 C.2     1  LIG1        0.2980
     19  O         21.4240    3.2820   32.7790 O.2     1  LIG1       -0.2590
     20  C         19.5980    4.6860   33.3970 C.ar    1  LIG1        0.0400
     21  C         19.3920    4.3780   34.7410 C.ar    1  LIG1        0.0200
     22  C         18.7170    5.2770   35.5670 C.ar    1  LIG1        0.0330
     23  C         18.2480    6.4830   35.0490 C.ar    1  LIG1        0.0750
     24  C         18.4540    6.7920   33.7040 C.ar    1  LIG1        0.0330
     25  C         19.1290    5.8930   32.8780 C.ar    1  LIG1        0.0200
     26  N         17.5710    7.3850   35.8770 N.pl3   1  LIG1       -0.0660
     27  C         18.2540    8.3300   36.4770 C.cat   1  LIG1        0.6920
     28  N         19.6100    8.5610   36.3930 N.pl3   1  LIG1       -0.2330
     29  N         17.6260    9.2360   37.2990 N.pl3   1  LIG1       -0.2330
     30  H         20.1750    7.9800   35.8350 H       1  LIG1        0.1740
     31  H         20.0140    9.3070   36.8940 H       1  LIG1        0.1740
     32  H         16.6550    9.1800   37.4420 H       1  LIG1        0.1740
     33  H         18.1500    9.9420   37.7430 H       1  LIG1        0.1740
@<TRIPOS>BOND
     1    17    15    1
     2    16    15    1
     3    15    13   am
     4    13    14    2
     5    13    12    1
     6    10     9    2
     7     3     4   ar
     8     3     2   ar
     9    12    11    1
    10     4     5   ar
    11     9    11    1
    12     9     8    1
    13     1     2    1
    14     1    18    1
    15     2     7   ar
    16     5     8    1
    17     5     6   ar
    18    18    19    2
    19    18    20    1
    20     7     6   ar
    21    25    20   ar
    22    25    24   ar
    23    20    21   ar
    24    24    23   ar
    25    21    22   ar
    26    23    22   ar
    27    23    26    1
    28    30    28    1
    29    26    27    2
    30    28    27    1
    31    28    31    1
    32    27    29    1
    33    29    32    1
    34    29    33    1
@<TRIPOS>MOLECULE
./../dock_file/temp/5d5b8a25041b0e88f5bdd75f41f2935b/Camostat_Ligand_CID_2536:hmTMPRSS11_B:20230418100831/Camostat_Ligand_CID_2536:hmTMPRSS11_B_out_1.pdbqt
 33 34 0 0 0
SMALL
GASTEIGER

@<TRIPOS>ATOM
      1  O         19.5800    0.9910   33.8650 O.3     1  LIG1       -0.2750
      2  C         18.6160    0.5270   33.0250 C.ar    1  LIG1        0.0790
      3  C         18.0880   -0.7510   33.2050 C.ar    1  LIG1        0.0380
      4  C         17.1000   -1.2260   32.3450 C.ar    1  LIG1        0.0100
      5  C         16.6370   -0.4220   31.3020 C.ar    1  LIG1       -0.0490
      6  C         17.1640    0.8570   31.1220 C.ar    1  LIG1        0.0100
      7  C         18.1530    1.3320   31.9830 C.ar    1  LIG1        0.0380
      8  C         15.5680   -0.9350   30.3720 C.3     1  LIG1        0.1490
      9  C         15.6520   -2.4260   30.1440 C.2     1  LIG1        0.2630
     10  O         15.0690   -3.2770   30.8010 O.2     1  LIG1       -0.2650
     11  O         16.4850   -2.6820   29.0810 O.3     1  LIG1       -0.3120
     12  C         17.0140   -3.9880   29.0030 C.3     1  LIG1        0.2810
     13  C         16.7060   -4.5820   27.6440 C.2     1  LIG1        0.2430
     14  O         15.6930   -4.2070   27.0480 O.2     1  LIG1       -0.2710
     15  N         17.6040   -5.5220   27.1350 N.am    1  LIG1       -0.3590
     16  C         18.8210   -5.9790   27.8020 C.3     1  LIG1        0.1520
     17  C         17.3550   -6.1140   25.8270 C.3     1  LIG1        0.1520
     18  C         19.1680    2.0400   34.6910 C.2     1  LIG1        0.2980
     19  O         18.2650    1.9870   35.5120 O.2     1  LIG1       -0.2590
     20  C         19.9650    3.2670   34.4370 C.ar    1  LIG1        0.0400
     21  C         21.2390    3.3980   34.9900 C.ar    1  LIG1        0.0200
     22  C         21.9880    4.5500   34.7510 C.ar    1  LIG1        0.0330
     23  C         21.4630    5.5710   33.9590 C.ar    1  LIG1        0.0750
     24  C         20.1890    5.4410   33.4060 C.ar    1  LIG1        0.0330
     25  C         19.4400    4.2890   33.6450 C.ar    1  LIG1        0.0200
     26  N         22.2140    6.7270   33.7200 N.pl3   1  LIG1       -0.0660
     27  C         22.0570    7.7610   34.5110 C.cat   1  LIG1        0.6920
     28  N         21.2110    7.8620   35.5940 N.pl3   1  LIG1       -0.2330
     29  N         22.7760    8.9150   34.3100 N.pl3   1  LIG1       -0.2330
     30  H         20.6390    7.1010   35.8440 H       1  LIG1        0.1740
     31  H         21.1780    8.6960   36.1170 H       1  LIG1        0.1740
     32  H         23.4180    8.9720   33.5660 H       1  LIG1        0.1740
     33  H         22.6490    9.6850   34.9110 H       1  LIG1        0.1740
@<TRIPOS>BOND
     1    17    15    1
     2    14    13    2
     3    15    13   am
     4    15    16    1
     5    13    12    1
     6    12    11    1
     7    11     9    1
     8     9     8    1
     9     9    10    2
    10     8     5    1
    11     6     5   ar
    12     6     7   ar
    13     5     4   ar
    14     7     2   ar
    15     4     3   ar
    16     2     3   ar
    17     2     1    1
    18    24    25   ar
    19    24    23   ar
    20    32    29    1
    21    25    20   ar
    22    26    23    1
    23    26    27    2
    24     1    18    1
    25    23    22   ar
    26    29    27    1
    27    29    33    1
    28    20    18    1
    29    20    21   ar
    30    27    28    1
    31    18    19    2
    32    22    21   ar
    33    28    30    1
    34    28    31    1
@<TRIPOS>MOLECULE
./../dock_file/temp/5d5b8a25041b0e88f5bdd75f41f2935b/Camostat_Ligand_CID_2536:hmTMPRSS11_B:20230418100831/Camostat_Ligand_CID_2536:hmTMPRSS11_B_out_1.pdbqt
 33 34 0 0 0
SMALL
GASTEIGER

@<TRIPOS>ATOM
      1  O         16.5290    0.1270   30.7350 O.3     1  LIG1       -0.2750
      2  C         17.4430    0.8550   31.4320 C.ar    1  LIG1        0.0790
      3  C         18.0290    1.9800   30.8530 C.ar    1  LIG1        0.0380
      4  C         18.9650    2.7260   31.5680 C.ar    1  LIG1        0.0100
      5  C         19.3160    2.3470   32.8640 C.ar    1  LIG1       -0.0490
      6  C         18.7300    1.2210   33.4430 C.ar    1  LIG1        0.0100
      7  C         17.7940    0.4750   32.7280 C.ar    1  LIG1        0.0380
      8  C         20.3280    3.1530   33.6370 C.3     1  LIG1        0.1490
      9  C         20.1250    4.6430   33.4970 C.2     1  LIG1        0.2630
     10  O         20.8340    5.3970   32.8440 O.2     1  LIG1       -0.2650
     11  O         19.0180    5.0260   34.2160 O.3     1  LIG1       -0.3120
     12  C         18.8030    6.4160   34.3390 C.3     1  LIG1        0.2810
     13  C         18.1890    6.7180   35.6900 C.2     1  LIG1        0.2430
     14  O         17.8600    5.7760   36.4170 O.2     1  LIG1       -0.2710
     15  N         18.0360    8.0600   36.0410 N.am    1  LIG1       -0.3590
     16  C         18.4260    9.2010   35.2150 C.3     1  LIG1        0.1520
     17  C         17.4580    8.4010   37.3350 C.3     1  LIG1        0.1520
     18  C         15.9670   -0.9310   31.4540 C.2     1  LIG1        0.2980
     19  O         15.2050   -0.8220   32.4030 O.2     1  LIG1       -0.2590
     20  C         16.4260   -2.2410   30.9270 C.ar    1  LIG1        0.0400
     21  C         16.3540   -2.5070   29.5610 C.ar    1  LIG1        0.0200
     22  C         16.7870   -3.7380   29.0660 C.ar    1  LIG1        0.0330
     23  C         17.2900   -4.7020   29.9380 C.ar    1  LIG1        0.0750
     24  C         17.3630   -4.4370   31.3060 C.ar    1  LIG1        0.0330
     25  C         16.9300   -3.2060   31.8000 C.ar    1  LIG1        0.0200
     26  N         17.7240   -5.9360   29.4420 N.pl3   1  LIG1       -0.0660
     27  C         18.9900   -6.0860   29.1340 C.cat   1  LIG1        0.6920
     28  N         19.9920   -5.1460   29.2400 N.pl3   1  LIG1       -0.2330
     29  N         19.4560   -7.2830   28.6440 N.pl3   1  LIG1       -0.2330
     30  H         19.7870   -4.2450   29.5790 H       1  LIG1        0.1740
     31  H         20.9120   -5.3760   28.9760 H       1  LIG1        0.1740
     32  H         18.8380   -8.0390   28.5210 H       1  LIG1        0.1740
     33  H         20.4090   -7.3840   28.4170 H       1  LIG1        0.1740
@<TRIPOS>BOND
     1    33    29    1
     2    32    29    1
     3    29    27    1
     4    31    28    1
     5    22    21   ar
     6    22    23   ar
     7    27    28    1
     8    27    26    2
     9    28    30    1
    10    26    23    1
    11    21    20   ar
    12    23    24   ar
    13     1     2    1
    14     1    18    1
    15     3     2   ar
    16     3     4   ar
    17    20    18    1
    18    20    25   ar
    19    24    25   ar
    20     2     7   ar
    21    18    19    2
    22     4     5   ar
    23     7     6   ar
    24    10     9    2
    25     5     6   ar
    26     5     8    1
    27     9     8    1
    28     9    11    1
    29    11    12    1
    30    12    13    1
    31    16    15    1
    32    13    15   am
    33    13    14    2
    34    15    17    1
@<TRIPOS>MOLECULE
./../dock_file/temp/5d5b8a25041b0e88f5bdd75f41f2935b/Camostat_Ligand_CID_2536:hmTMPRSS11_B:20230418100831/Camostat_Ligand_CID_2536:hmTMPRSS11_B_out_1.pdbqt
 33 34 0 0 0
SMALL
GASTEIGER

@<TRIPOS>ATOM
      1  O         15.9560   -0.4010   31.2660 O.3     1  LIG1       -0.2750
      2  C         17.0190    0.3440   31.6750 C.ar    1  LIG1        0.0790
      3  C         17.4460    1.4310   30.9110 C.ar    1  LIG1        0.0380
      4  C         18.5350    2.1940   31.3300 C.ar    1  LIG1        0.0100
      5  C         19.1980    1.8720   32.5140 C.ar    1  LIG1       -0.0490
      6  C         18.7720    0.7850   33.2780 C.ar    1  LIG1        0.0100
      7  C         17.6820    0.0220   32.8590 C.ar    1  LIG1        0.0380
      8  C         20.3750    2.6960   32.9670 C.3     1  LIG1        0.1490
      9  C         20.2950    3.0870   34.4240 C.2     1  LIG1        0.2630
     10  O         21.0150    2.6570   35.3140 O.2     1  LIG1       -0.2650
     11  O         19.2850    4.0040   34.5990 O.3     1  LIG1       -0.3120
     12  C         19.6660    5.3630   34.5750 C.3     1  LIG1        0.2810
     13  C         18.9310    6.0790   33.4610 C.2     1  LIG1        0.2430
     14  O         19.2180    5.8080   32.2910 O.2     1  LIG1       -0.2710
     15  N         17.9550    7.0060   33.8270 N.am    1  LIG1       -0.3590
     16  C         17.5760    7.3410   35.1980 C.3     1  LIG1        0.1520
     17  C         17.2150    7.7130   32.7900 C.3     1  LIG1        0.1520
     18  C         16.1100   -0.9780   30.0030 C.2     1  LIG1        0.2980
     19  O         16.2240   -0.3690   28.9510 O.2     1  LIG1       -0.2590
     20  C         16.1040   -2.4600   30.0880 C.ar    1  LIG1        0.0400
     21  C         15.5430   -3.0930   31.1970 C.ar    1  LIG1        0.0200
     22  C         15.5370   -4.4860   31.2750 C.ar    1  LIG1        0.0330
     23  C         16.0920   -5.2460   30.2460 C.ar    1  LIG1        0.0750
     24  C         16.6530   -4.6130   29.1370 C.ar    1  LIG1        0.0330
     25  C         16.6590   -3.2200   29.0580 C.ar    1  LIG1        0.0200
     26  N         16.0850   -6.6420   30.3260 N.pl3   1  LIG1       -0.0660
     27  C         17.1110   -7.2510   30.8700 C.cat   1  LIG1        0.6920
     28  N         18.2440   -6.6690   31.3970 N.pl3   1  LIG1       -0.2330
     29  N         17.1430   -8.6220   30.9680 N.pl3   1  LIG1       -0.2330
     30  H         18.3440   -5.6900   31.3880 H       1  LIG1        0.1740
     31  H         18.9530   -7.2330   31.7820 H       1  LIG1        0.1740
     32  H         16.3920   -9.1580   30.6280 H       1  LIG1        0.1740
     33  H         17.9190   -9.0680   31.3790 H       1  LIG1        0.1740
@<TRIPOS>BOND
     1    19    18    2
     2    25    24   ar
     3    25    20   ar
     4    24    23   ar
     5    18    20    1
     6    18     1    1
     7    20    21   ar
     8    23    26    1
     9    23    22   ar
    10    26    27    2
    11    32    29    1
    12    27    29    1
    13    27    28    1
    14     3     4   ar
    15     3     2   ar
    16    29    33    1
    17    21    22   ar
    18     1     2    1
    19     4     5   ar
    20    30    28    1
    21    28    31    1
    22     2     7   ar
    23    14    13    2
    24     5     8    1
    25     5     6   ar
    26    17    15    1
    27     7     6   ar
    28     8     9    1
    29    13    15   am
    30    13    12    1
    31    15    16    1
    32     9    11    1
    33     9    10    2
    34    12    11    1
@<TRIPOS>MOLECULE
./../dock_file/temp/5d5b8a25041b0e88f5bdd75f41f2935b/Camostat_Ligand_CID_2536:hmTMPRSS11_B:20230418100831/Camostat_Ligand_CID_2536:hmTMPRSS11_B_out_1.pdbqt
 33 34 0 0 0
SMALL
GASTEIGER

@<TRIPOS>ATOM
      1  O         15.7940   -1.4990   31.5810 O.3     1  LIG1       -0.2750
      2  C         16.6130   -0.4110   31.5700 C.ar    1  LIG1        0.0790
      3  C         16.6270    0.4410   30.4650 C.ar    1  LIG1        0.0380
      4  C         17.4650    1.5540   30.4540 C.ar    1  LIG1        0.0100
      5  C         18.2900    1.8180   31.5480 C.ar    1  LIG1       -0.0490
      6  C         18.2760    0.9660   32.6520 C.ar    1  LIG1        0.0100
      7  C         17.4370   -0.1480   32.6640 C.ar    1  LIG1        0.0380
      8  C         19.1960    3.0220   31.5360 C.3     1  LIG1        0.1490
      9  C         20.1300    3.0680   32.7230 C.2     1  LIG1        0.2630
     10  O         19.9430    3.7110   33.7460 O.2     1  LIG1       -0.2650
     11  O         21.2240    2.2730   32.4780 O.3     1  LIG1       -0.3120
     12  C         22.2820    2.3630   33.4080 C.3     1  LIG1        0.2810
     13  C         22.3260    1.1080   34.2530 C.2     1  LIG1        0.2430
     14  O         22.1940    0.0130   33.6980 O.2     1  LIG1       -0.2710
     15  N         22.5260    1.2630   35.6260 N.am    1  LIG1       -0.3590
     16  C         22.7020    2.5390   36.3160 C.3     1  LIG1        0.1520
     17  C         22.5840    0.0840   36.4790 C.3     1  LIG1        0.1520
     18  C         16.4270   -2.6910   31.9410 C.2     1  LIG1        0.2980
     19  O         16.5850   -3.0970   33.0830 O.2     1  LIG1       -0.2590
     20  C         16.9150   -3.4210   30.7440 C.ar    1  LIG1        0.0400
     21  C         16.3310   -3.1890   29.5000 C.ar    1  LIG1        0.0200
     22  C         16.7890   -3.8750   28.3750 C.ar    1  LIG1        0.0330
     23  C         17.8310   -4.7940   28.4950 C.ar    1  LIG1        0.0750
     24  C         18.4160   -5.0270   29.7400 C.ar    1  LIG1        0.0330
     25  C         17.9570   -4.3410   30.8640 C.ar    1  LIG1        0.0200
     26  N         18.2900   -5.4820   27.3670 N.pl3   1  LIG1       -0.0660
     27  C         17.4200   -5.8880   26.4730 C.cat   1  LIG1        0.6920
     28  N         16.0520   -5.7170   26.5030 N.pl3   1  LIG1       -0.2330
     29  N         17.8300   -6.5670   25.3510 N.pl3   1  LIG1       -0.2330
     30  H         15.6320   -5.2450   27.2570 H       1  LIG1        0.1740
     31  H         15.4970   -6.0690   25.7690 H       1  LIG1        0.1740
     32  H         18.7860   -6.7530   25.2100 H       1  LIG1        0.1740
     33  H         17.1670   -6.8660   24.6870 H       1  LIG1        0.1740
@<TRIPOS>BOND
     1    33    29    1
     2    32    29    1
     3    29    27    1
     4    31    28    1
     5    27    28    1
     6    27    26    2
     7    28    30    1
     8    26    23    1
     9    22    23   ar
    10    22    21   ar
    11    23    24   ar
    12    21    20   ar
    13    24    25   ar
    14     4     3   ar
    15     4     5   ar
    16     3     2   ar
    17    20    25   ar
    18    20    18    1
    19     8     5    1
    20     8     9    1
    21     5     6   ar
    22     2     1    1
    23     2     7   ar
    24     1    18    1
    25    18    19    2
    26    11     9    1
    27    11    12    1
    28     6     7   ar
    29     9    10    2
    30    12    13    1
    31    14    13    2
    32    13    15   am
    33    15    16    1
    34    15    17    1
