@<TRIPOS>MOLECULE
./../dock_file/temp/5d5b8a25041b0e88f5bdd75f41f2935b/Camostat_Ligand_CID_2536:hmTMPRSS11_B:20230418100831/Camostat_Ligand_CID_2536:hmTMPRSS11_B_out_3.pdbqt
 33 34 0 0 0
SMALL
GASTEIGER

@<TRIPOS>ATOM
      1  O         11.5710   -6.6410   34.3380 O.3     1  LIG1       -0.2750
      2  C         12.4950   -6.4220   33.3630 C.ar    1  LIG1        0.0790
      3  C         13.7700   -6.9780   33.4720 C.ar    1  LIG1        0.0380
      4  C         14.7160   -6.7540   32.4730 C.ar    1  LIG1        0.0100
      5  C         14.3890   -5.9740   31.3640 C.ar    1  LIG1       -0.0490
      6  C         13.1140   -5.4180   31.2550 C.ar    1  LIG1        0.0100
      7  C         12.1670   -5.6420   32.2540 C.ar    1  LIG1        0.0380
      8  C         15.4110   -5.7310   30.2840 C.3     1  LIG1        0.1490
      9  C         15.1780   -4.4420   29.5310 C.2     1  LIG1        0.2630
     10  O         15.0340   -3.3390   30.0400 O.2     1  LIG1       -0.2650
     11  O         15.1520   -4.6990   28.1800 O.3     1  LIG1       -0.3120
     12  C         16.2400   -4.2030   27.4300 C.3     1  LIG1        0.2810
     13  C         17.0520   -5.3600   26.8850 C.2     1  LIG1        0.2430
     14  O         17.9300   -5.8550   27.5970 O.2     1  LIG1       -0.2710
     15  N         16.7490   -5.8090   25.5990 N.am    1  LIG1       -0.3590
     16  C         15.7080   -5.2590   24.7340 C.3     1  LIG1        0.1520
     17  C         17.4970   -6.9250   25.0350 C.3     1  LIG1        0.1520
     18  C         10.6660   -5.5920   34.5180 C.2     1  LIG1        0.2980
     19  O          9.5940   -5.4690   33.9450 O.2     1  LIG1       -0.2590
     20  C         11.1790   -4.6060   35.5030 C.ar    1  LIG1        0.0400
     21  C         10.3560   -3.5730   35.9480 C.ar    1  LIG1        0.0200
     22  C         10.8370   -2.6470   36.8740 C.ar    1  LIG1        0.0330
     23  C         12.1420   -2.7540   37.3530 C.ar    1  LIG1        0.0750
     24  C         12.9670   -3.7880   36.9080 C.ar    1  LIG1        0.0330
     25  C         12.4850   -4.7140   35.9820 C.ar    1  LIG1        0.0200
     26  N         12.6250   -1.8260   38.2820 N.pl3   1  LIG1       -0.0660
     27  C         13.2720   -0.7710   37.8460 C.cat   1  LIG1        0.6920
     28  N         13.5500   -0.4450   36.5360 N.pl3   1  LIG1       -0.2330
     29  N         13.7630    0.1650   38.7250 N.pl3   1  LIG1       -0.2330
     30  H         13.2530   -1.0360   35.8080 H       1  LIG1        0.1740
     31  H         14.0480    0.3790   36.3290 H       1  LIG1        0.1740
     32  H         13.6290    0.0490   39.6930 H       1  LIG1        0.1740
     33  H         14.2460    0.9530   38.3850 H       1  LIG1        0.1740
@<TRIPOS>BOND
     1    16    15    1
     2    17    15    1
     3    15    13   am
     4    13    12    1
     5    13    14    2
     6    12    11    1
     7    11     9    1
     8     9    10    2
     9     9     8    1
    10     8     5    1
    11     6     5   ar
    12     6     7   ar
    13     5     4   ar
    14     7     2   ar
    15     4     3   ar
    16     2     3   ar
    17     2     1    1
    18    19    18    2
    19     1    18    1
    20    18    20    1
    21    20    21   ar
    22    20    25   ar
    23    30    28    1
    24    21    22   ar
    25    25    24   ar
    26    31    28    1
    27    28    27    1
    28    22    23   ar
    29    24    23   ar
    30    23    26    1
    31    27    26    2
    32    27    29    1
    33    33    29    1
    34    29    32    1
@<TRIPOS>MOLECULE
./../dock_file/temp/5d5b8a25041b0e88f5bdd75f41f2935b/Camostat_Ligand_CID_2536:hmTMPRSS11_B:20230418100831/Camostat_Ligand_CID_2536:hmTMPRSS11_B_out_3.pdbqt
 33 34 0 0 0
SMALL
GASTEIGER

@<TRIPOS>ATOM
      1  O         -1.7170    5.8850   40.3000 O.3     1  LIG1       -0.2750
      2  C         -0.5450    6.3560   39.7920 C.ar    1  LIG1        0.0790
      3  C          0.5110    5.4780   39.5440 C.ar    1  LIG1        0.0380
      4  C          1.7110    5.9610   39.0230 C.ar    1  LIG1        0.0100
      5  C          1.8550    7.3210   38.7490 C.ar    1  LIG1       -0.0490
      6  C          0.7990    8.1990   38.9970 C.ar    1  LIG1        0.0100
      7  C         -0.4010    7.7160   39.5190 C.ar    1  LIG1        0.0380
      8  C          3.1520    7.8430   38.1860 C.3     1  LIG1        0.1490
      9  C          3.3540    7.4770   36.7340 C.2     1  LIG1        0.2630
     10  O          4.1070    6.6060   36.3210 O.2     1  LIG1       -0.2650
     11  O          2.5590    8.2740   35.9450 O.3     1  LIG1       -0.3120
     12  C          2.8670    9.6520   35.9380 C.3     1  LIG1        0.2810
     13  C          1.5870   10.4600   35.9910 C.2     1  LIG1        0.2430
     14  O          0.7640   10.3290   35.0810 O.2     1  LIG1       -0.2710
     15  N          1.4090   11.3100   37.0840 N.am    1  LIG1       -0.3590
     16  C          2.3520   11.4810   38.1870 C.3     1  LIG1        0.1520
     17  C          0.1890   12.1010   37.1830 C.3     1  LIG1        0.1520
     18  C         -2.8500    6.2640   39.5770 C.2     1  LIG1        0.2980
     19  O         -3.7080    7.0470   39.9560 O.2     1  LIG1       -0.2590
     20  C         -2.9030    5.5740   38.2640 C.ar    1  LIG1        0.0400
     21  C         -3.1930    4.2120   38.2030 C.ar    1  LIG1        0.0200
     22  C         -3.2430    3.5640   36.9680 C.ar    1  LIG1        0.0330
     23  C         -3.0020    4.2780   35.7950 C.ar    1  LIG1        0.0750
     24  C         -2.7120    5.6410   35.8550 C.ar    1  LIG1        0.0330
     25  C         -2.6620    6.2890   37.0900 C.ar    1  LIG1        0.0200
     26  N         -3.0520    3.6280   34.5570 N.pl3   1  LIG1       -0.0660
     27  C         -4.2110    3.4960   33.9570 C.cat   1  LIG1        0.6920
     28  N         -5.4380    3.9320   34.4070 N.pl3   1  LIG1       -0.2330
     29  N         -4.3030    2.8630   32.7400 N.pl3   1  LIG1       -0.2330
     30  H         -5.5080    4.4010   35.2690 H       1  LIG1        0.1740
     31  H         -6.2460    3.7730   33.8650 H       1  LIG1        0.1740
     32  H         -3.4950    2.5050   32.3090 H       1  LIG1        0.1740
     33  H         -5.1790    2.7710   32.2990 H       1  LIG1        0.1740
@<TRIPOS>BOND
     1    33    29    1
     2    32    29    1
     3    29    27    1
     4    31    28    1
     5    27    28    1
     6    27    26    2
     7    28    30    1
     8    26    23    1
     9    14    13    2
    10    23    24   ar
    11    23    22   ar
    12    24    25   ar
    13    12    11    1
    14    12    13    1
    15    11     9    1
    16    13    15   am
    17    10     9    2
    18     9     8    1
    19    22    21   ar
    20    15    17    1
    21    15    16    1
    22    25    20   ar
    23     8     5    1
    24    21    20   ar
    25    20    18    1
    26     5     6   ar
    27     5     4   ar
    28     6     7   ar
    29     4     3   ar
    30     7     2   ar
    31     3     2   ar
    32    18    19    2
    33    18     1    1
    34     2     1    1
@<TRIPOS>MOLECULE
./../dock_file/temp/5d5b8a25041b0e88f5bdd75f41f2935b/Camostat_Ligand_CID_2536:hmTMPRSS11_B:20230418100831/Camostat_Ligand_CID_2536:hmTMPRSS11_B_out_3.pdbqt
 33 34 0 0 0
SMALL
GASTEIGER

@<TRIPOS>ATOM
      1  O         11.3040   -6.1860   34.8450 O.3     1  LIG1       -0.2750
      2  C         11.6290   -5.0770   35.5630 C.ar    1  LIG1        0.0790
      3  C         12.6540   -5.1310   36.5080 C.ar    1  LIG1        0.0380
      4  C         12.9870   -3.9940   37.2430 C.ar    1  LIG1        0.0100
      5  C         12.2950   -2.8010   37.0340 C.ar    1  LIG1       -0.0490
      6  C         11.2690   -2.7460   36.0890 C.ar    1  LIG1        0.0100
      7  C         10.9370   -3.8840   35.3540 C.ar    1  LIG1        0.0380
      8  C         12.6540   -1.5720   37.8280 C.3     1  LIG1        0.1490
      9  C         13.7240   -0.7360   37.1670 C.2     1  LIG1        0.2630
     10  O         13.9930   -0.7420   35.9740 O.2     1  LIG1       -0.2650
     11  O         14.3520    0.0380   38.1150 O.3     1  LIG1       -0.3120
     12  C         13.7460    1.2780   38.4100 C.3     1  LIG1        0.2810
     13  C         14.6480    2.4070   37.9550 C.2     1  LIG1        0.2430
     14  O         14.5500    2.8140   36.7940 O.2     1  LIG1       -0.2710
     15  N         15.5400    2.9330   38.8910 N.am    1  LIG1       -0.3590
     16  C         15.6740    2.4890   40.2760 C.3     1  LIG1        0.1520
     17  C         16.4220    4.0260   38.5030 C.3     1  LIG1        0.1520
     18  C         12.4020   -6.8790   34.3310 C.2     1  LIG1        0.2980
     19  O         12.8730   -7.9100   34.7880 O.2     1  LIG1       -0.2590
     20  C         12.9580   -6.1920   33.1380 C.ar    1  LIG1        0.0400
     21  C         14.2760   -5.7370   33.1460 C.ar    1  LIG1        0.0200
     22  C         14.7980   -5.0910   32.0250 C.ar    1  LIG1        0.0330
     23  C         14.0020   -4.9000   30.8960 C.ar    1  LIG1        0.0750
     24  C         12.6840   -5.3550   30.8870 C.ar    1  LIG1        0.0330
     25  C         12.1610   -6.0000   32.0080 C.ar    1  LIG1        0.0200
     26  N         14.5260   -4.2530   29.7720 N.pl3   1  LIG1       -0.0660
     27  C         15.3490   -4.9080   28.9890 C.cat   1  LIG1        0.6920
     28  N         15.7840   -6.2080   29.1360 N.pl3   1  LIG1       -0.2330
     29  N         15.8860   -4.3080   27.8740 N.pl3   1  LIG1       -0.2330
     30  H         15.4730   -6.7480   29.8970 H       1  LIG1        0.1740
     31  H         16.4080   -6.5950   28.4800 H       1  LIG1        0.1740
     32  H         15.6530   -3.3770   27.6560 H       1  LIG1        0.1740
     33  H         16.5020   -4.8110   27.2940 H       1  LIG1        0.1740
@<TRIPOS>BOND
     1    33    29    1
     2    32    29    1
     3    29    27    1
     4    31    28    1
     5    27    28    1
     6    27    26    2
     7    28    30    1
     8    26    23    1
     9    24    23   ar
    10    24    25   ar
    11    23    22   ar
    12    25    20   ar
    13    22    21   ar
    14    20    21   ar
    15    20    18    1
    16    18    19    2
    17    18     1    1
    18     1     2    1
    19     7     2   ar
    20     7     6   ar
    21     2     3   ar
    22    10     9    2
    23     6     5   ar
    24     3     4   ar
    25    14    13    2
    26     5     4   ar
    27     5     8    1
    28     9     8    1
    29     9    11    1
    30    13    12    1
    31    13    15   am
    32    11    12    1
    33    17    15    1
    34    15    16    1
@<TRIPOS>MOLECULE
./../dock_file/temp/5d5b8a25041b0e88f5bdd75f41f2935b/Camostat_Ligand_CID_2536:hmTMPRSS11_B:20230418100831/Camostat_Ligand_CID_2536:hmTMPRSS11_B_out_3.pdbqt
 33 34 0 0 0
SMALL
GASTEIGER

@<TRIPOS>ATOM
      1  O         15.7710   -3.2880   33.1600 O.3     1  LIG1       -0.2750
      2  C         15.0000   -2.8260   34.1820 C.ar    1  LIG1        0.0790
      3  C         15.5930   -2.1810   35.2670 C.ar    1  LIG1        0.0380
      4  C         14.8030   -1.7080   36.3140 C.ar    1  LIG1        0.0100
      5  C         13.4190   -1.8780   36.2760 C.ar    1  LIG1       -0.0490
      6  C         12.8260   -2.5230   35.1900 C.ar    1  LIG1        0.0100
      7  C         13.6170   -2.9970   34.1430 C.ar    1  LIG1        0.0380
      8  C         12.5650   -1.3670   37.4060 C.3     1  LIG1        0.1490
      9  C         12.3870   -2.3780   38.5140 C.2     1  LIG1        0.2630
     10  O         13.2100   -2.6290   39.3840 O.2     1  LIG1       -0.2650
     11  O         11.1540   -2.9760   38.3970 O.3     1  LIG1       -0.3120
     12  C         10.1530   -2.5180   39.2810 C.3     1  LIG1        0.2810
     13  C          8.8890   -2.2130   38.5050 C.2     1  LIG1        0.2430
     14  O          8.6920   -2.8000   37.4370 O.2     1  LIG1       -0.2710
     15  N          8.0070   -1.2810   39.0540 N.am    1  LIG1       -0.3590
     16  C          8.1980   -0.5780   40.3200 C.3     1  LIG1        0.1520
     17  C          6.7730   -0.9610   38.3470 C.3     1  LIG1        0.1520
     18  C         15.6950   -2.5260   31.9920 C.2     1  LIG1        0.2980
     19  O         15.5320   -1.3160   31.9400 O.2     1  LIG1       -0.2590
     20  C         15.8210   -3.3810   30.7840 C.ar    1  LIG1        0.0400
     21  C         16.9820   -3.3320   30.0140 C.ar    1  LIG1        0.0200
     22  C         17.1010   -4.1360   28.8800 C.ar    1  LIG1        0.0330
     23  C         16.0590   -4.9880   28.5160 C.ar    1  LIG1        0.0750
     24  C         14.8970   -5.0370   29.2870 C.ar    1  LIG1        0.0330
     25  C         14.7780   -4.2330   30.4210 C.ar    1  LIG1        0.0200
     26  N         16.1780   -5.7940   27.3790 N.pl3   1  LIG1       -0.0660
     27  C         15.9440   -5.2670   26.2010 C.cat   1  LIG1        0.6920
     28  N         15.5790   -3.9670   25.9260 N.pl3   1  LIG1       -0.2330
     29  N         16.0500   -6.0250   25.0590 N.pl3   1  LIG1       -0.2330
     30  H         15.4680   -3.3210   26.6600 H       1  LIG1        0.1740
     31  H         15.4290   -3.6850   24.9950 H       1  LIG1        0.1740
     32  H         16.3050   -6.9740   25.1200 H       1  LIG1        0.1740
     33  H         15.8720   -5.6180   24.1800 H       1  LIG1        0.1740
@<TRIPOS>BOND
     1    33    29    1
     2    31    28    1
     3    29    32    1
     4    29    27    1
     5    28    27    1
     6    28    30    1
     7    27    26    2
     8    26    23    1
     9    23    22   ar
    10    23    24   ar
    11    22    21   ar
    12    24    25   ar
    13    21    20   ar
    14    25    20   ar
    15    20    18    1
    16    19    18    2
    17    18     1    1
    18     1     2    1
    19     7     2   ar
    20     7     6   ar
    21     2     3   ar
    22     6     5   ar
    23     3     4   ar
    24     5     4   ar
    25     5     8    1
    26     8     9    1
    27    14    13    2
    28    17    15    1
    29    11     9    1
    30    11    12    1
    31    13    15   am
    32    13    12    1
    33     9    10    2
    34    15    16    1
@<TRIPOS>MOLECULE
./../dock_file/temp/5d5b8a25041b0e88f5bdd75f41f2935b/Camostat_Ligand_CID_2536:hmTMPRSS11_B:20230418100831/Camostat_Ligand_CID_2536:hmTMPRSS11_B_out_3.pdbqt
 33 34 0 0 0
SMALL
GASTEIGER

@<TRIPOS>ATOM
      1  O         15.2020   -3.3120   32.9630 O.3     1  LIG1       -0.2750
      2  C         14.8700   -2.5860   34.0650 C.ar    1  LIG1        0.0790
      3  C         15.8170   -2.3580   35.0630 C.ar    1  LIG1        0.0380
      4  C         15.4760   -1.6140   36.1910 C.ar    1  LIG1        0.0100
      5  C         14.1870   -1.0960   36.3220 C.ar    1  LIG1       -0.0490
      6  C         13.2400   -1.3240   35.3240 C.ar    1  LIG1        0.0100
      7  C         13.5810   -2.0690   34.1950 C.ar    1  LIG1        0.0380
      8  C         13.8190   -0.2920   37.5420 C.3     1  LIG1        0.1490
      9  C         13.4730   -1.1530   38.7340 C.2     1  LIG1        0.2630
     10  O         14.2810   -1.6760   39.4890 O.2     1  LIG1       -0.2650
     11  O         12.1070   -1.2600   38.8420 O.3     1  LIG1       -0.3120
     12  C         11.5940   -2.5660   39.0040 C.3     1  LIG1        0.2810
     13  C         11.1060   -3.0910   37.6700 C.2     1  LIG1        0.2430
     14  O         10.0750   -2.6160   37.1860 O.2     1  LIG1       -0.2710
     15  N         11.8670   -4.0860   37.0540 N.am    1  LIG1       -0.3590
     16  C         13.1000   -4.6610   37.5870 C.3     1  LIG1        0.1520
     17  C         11.4430   -4.6160   35.7650 C.3     1  LIG1        0.1520
     18  C         15.5650   -2.5430   31.8550 C.2     1  LIG1        0.2980
     19  O         15.7240   -1.3320   31.8500 O.2     1  LIG1       -0.2590
     20  C         15.7230   -3.3880   30.6440 C.ar    1  LIG1        0.0400
     21  C         16.9000   -3.3250   29.8990 C.ar    1  LIG1        0.0200
     22  C         17.0480   -4.1200   28.7620 C.ar    1  LIG1        0.0330
     23  C         16.0200   -4.9760   28.3700 C.ar    1  LIG1        0.0750
     24  C         14.8420   -5.0400   29.1150 C.ar    1  LIG1        0.0330
     25  C         14.6940   -4.2450   30.2520 C.ar    1  LIG1        0.0200
     26  N         16.1690   -5.7730   27.2300 N.pl3   1  LIG1       -0.0660
     27  C         15.9580   -5.2390   26.0510 C.cat   1  LIG1        0.6920
     28  N         15.5930   -3.9380   25.7780 N.pl3   1  LIG1       -0.2330
     29  N         16.0950   -5.9870   24.9060 N.pl3   1  LIG1       -0.2330
     30  H         15.4620   -3.2990   26.5140 H       1  LIG1        0.1740
     31  H         15.4620   -3.6500   24.8450 H       1  LIG1        0.1740
     32  H         16.3540   -6.9350   24.9650 H       1  LIG1        0.1740
     33  H         15.9340   -5.5740   24.0260 H       1  LIG1        0.1740
@<TRIPOS>BOND
     1    33    29    1
     2    31    28    1
     3    29    32    1
     4    29    27    1
     5    28    27    1
     6    28    30    1
     7    27    26    2
     8    26    23    1
     9    23    22   ar
    10    23    24   ar
    11    22    21   ar
    12    24    25   ar
    13    21    20   ar
    14    25    20   ar
    15    20    18    1
    16    19    18    2
    17    18     1    1
    18     1     2    1
    19     2     7   ar
    20     2     3   ar
    21     7     6   ar
    22     3     4   ar
    23     6     5   ar
    24    17    15    1
    25     4     5   ar
    26     5     8    1
    27    15    16    1
    28    15    13   am
    29    14    13    2
    30     8     9    1
    31    13    12    1
    32     9    11    1
    33     9    10    2
    34    11    12    1
@<TRIPOS>MOLECULE
./../dock_file/temp/5d5b8a25041b0e88f5bdd75f41f2935b/Camostat_Ligand_CID_2536:hmTMPRSS11_B:20230418100831/Camostat_Ligand_CID_2536:hmTMPRSS11_B_out_3.pdbqt
 33 34 0 0 0
SMALL
GASTEIGER

@<TRIPOS>ATOM
      1  O          3.2760    3.6520   40.3150 O.3     1  LIG1       -0.2750
      2  C          3.1830    2.4070   39.7740 C.ar    1  LIG1        0.0790
      3  C          2.6240    1.3640   40.5130 C.ar    1  LIG1        0.0380
      4  C          2.5290    0.0880   39.9590 C.ar    1  LIG1        0.0100
      5  C          2.9910   -0.1460   38.6630 C.ar    1  LIG1       -0.0490
      6  C          3.5500    0.8970   37.9240 C.ar    1  LIG1        0.0100
      7  C          3.6450    2.1740   38.4790 C.ar    1  LIG1        0.0380
      8  C          2.8890   -1.5240   38.0640 C.3     1  LIG1        0.1490
      9  C          3.5310   -2.5890   38.9210 C.2     1  LIG1        0.2630
     10  O          2.9300   -3.3980   39.6150 O.2     1  LIG1       -0.2650
     11  O          4.8980   -2.5110   38.8030 O.3     1  LIG1       -0.3120
     12  C          5.6160   -2.2730   39.9950 C.3     1  LIG1        0.2810
     13  C          6.7600   -1.3190   39.7200 C.2     1  LIG1        0.2430
     14  O          6.7080   -0.6060   38.7150 O.2     1  LIG1       -0.2710
     15  N          7.8120   -1.2970   40.6360 N.am    1  LIG1       -0.3590
     16  C          7.9010   -2.1150   41.8440 C.3     1  LIG1        0.1520
     17  C          8.9310   -0.3890   40.4190 C.3     1  LIG1        0.1520
     18  C          2.1030    4.4060   40.2260 C.2     1  LIG1        0.2980
     19  O          0.9840    4.0230   40.5340 O.2     1  LIG1       -0.2590
     20  C          2.3770    5.7610   39.6840 C.ar    1  LIG1        0.0400
     21  C          2.7170    6.8020   40.5480 C.ar    1  LIG1        0.0200
     22  C          2.9750    8.0750   40.0390 C.ar    1  LIG1        0.0330
     23  C          2.8930    8.3070   38.6660 C.ar    1  LIG1        0.0750
     24  C          2.5540    7.2660   37.8020 C.ar    1  LIG1        0.0330
     25  C          2.2950    5.9930   38.3110 C.ar    1  LIG1        0.0200
     26  N          3.1520    9.5830   38.1560 N.pl3   1  LIG1       -0.0660
     27  C          2.1620   10.4360   38.0480 C.cat   1  LIG1        0.6920
     28  N          0.8420   10.2290   38.3870 N.pl3   1  LIG1       -0.2330
     29  N          2.3740   11.7000   37.5510 N.pl3   1  LIG1       -0.2330
     30  H          0.5580    9.3620   38.7550 H       1  LIG1        0.1740
     31  H          0.1830   10.9500   38.2600 H       1  LIG1        0.1740
     32  H          3.2770   11.9740   37.2730 H       1  LIG1        0.1740
     33  H          1.6220   12.3320   37.4760 H       1  LIG1        0.1740
@<TRIPOS>BOND
     1    32    29    1
     2    33    29    1
     3    29    27    1
     4    24    25   ar
     5    24    23   ar
     6     6     7   ar
     7     6     5   ar
     8    27    26    2
     9    27    28    1
    10     8     5    1
    11     8     9    1
    12    26    23    1
    13    31    28    1
    14    25    20   ar
    15    28    30    1
    16     7     2   ar
    17     5     4   ar
    18    23    22   ar
    19    14    13    2
    20    11     9    1
    21    11    12    1
    22     9    10    2
    23    20    18    1
    24    20    21   ar
    25    13    12    1
    26    13    15   am
    27     2     1    1
    28     2     3   ar
    29     4     3   ar
    30    22    21   ar
    31    18     1    1
    32    18    19    2
    33    17    15    1
    34    15    16    1
@<TRIPOS>MOLECULE
./../dock_file/temp/5d5b8a25041b0e88f5bdd75f41f2935b/Camostat_Ligand_CID_2536:hmTMPRSS11_B:20230418100831/Camostat_Ligand_CID_2536:hmTMPRSS11_B_out_3.pdbqt
 33 34 0 0 0
SMALL
GASTEIGER

@<TRIPOS>ATOM
      1  O         -1.0130    6.0690   39.8270 O.3     1  LIG1       -0.2750
      2  C          0.0570    6.8540   39.5260 C.ar    1  LIG1        0.0790
      3  C          0.0530    8.2050   39.8780 C.ar    1  LIG1        0.0380
      4  C          1.1490    9.0090   39.5690 C.ar    1  LIG1        0.0100
      5  C          2.2510    8.4640   38.9100 C.ar    1  LIG1       -0.0490
      6  C          2.2550    7.1140   38.5580 C.ar    1  LIG1        0.0100
      7  C          1.1580    6.3090   38.8670 C.ar    1  LIG1        0.0380
      8  C          3.4360    9.3330   38.5770 C.3     1  LIG1        0.1490
      9  C          3.1730   10.2700   37.4210 C.2     1  LIG1        0.2630
     10  O          2.5790    9.9770   36.3930 O.2     1  LIG1       -0.2650
     11  O          3.7030   11.5060   37.7030 O.3     1  LIG1       -0.3120
     12  C          3.4710   12.0030   39.0040 C.3     1  LIG1        0.2810
     13  C          2.4330   13.1040   38.9520 C.2     1  LIG1        0.2430
     14  O          2.4340   13.8750   37.9880 O.2     1  LIG1       -0.2710
     15  N          1.5190   13.1760   40.0040 N.am    1  LIG1       -0.3590
     16  C          1.4770   12.2730   41.1520 C.3     1  LIG1        0.1520
     17  C          0.4960   14.2130   39.9940 C.3     1  LIG1        0.1520
     18  C         -2.2040    6.4600   39.2110 C.2     1  LIG1        0.2980
     19  O         -2.9920    7.2870   39.6440 O.2     1  LIG1       -0.2590
     20  C         -2.4180    5.7210   37.9400 C.ar    1  LIG1        0.0400
     21  C         -2.0730    6.3110   36.7250 C.ar    1  LIG1        0.0200
     22  C         -2.2730    5.6170   35.5320 C.ar    1  LIG1        0.0330
     23  C         -2.8180    4.3330   35.5540 C.ar    1  LIG1        0.0750
     24  C         -3.1630    3.7430   36.7700 C.ar    1  LIG1        0.0330
     25  C         -2.9630    4.4370   37.9630 C.ar    1  LIG1        0.0200
     26  N         -3.0180    3.6370   34.3570 N.pl3   1  LIG1       -0.0660
     27  C         -4.2390    3.5090   33.8950 C.cat   1  LIG1        0.6920
     28  N         -5.4000    3.9920   34.4590 N.pl3   1  LIG1       -0.2330
     29  N         -4.4780    2.8330   32.7220 N.pl3   1  LIG1       -0.2330
     30  H         -5.3640    4.4950   35.3040 H       1  LIG1        0.1740
     31  H         -6.2650    3.8310   34.0170 H       1  LIG1        0.1740
     32  H         -3.7300    2.4390   32.2190 H       1  LIG1        0.1740
     33  H         -5.4000    2.7440   32.3850 H       1  LIG1        0.1740
@<TRIPOS>BOND
     1    32    29    1
     2    33    29    1
     3    29    27    1
     4    27    26    2
     5    27    28    1
     6    31    28    1
     7    26    23    1
     8    28    30    1
     9    22    23   ar
    10    22    21   ar
    11    23    24   ar
    12    10     9    2
    13    21    20   ar
    14    24    25   ar
    15     9    11    1
    16     9     8    1
    17    11    12    1
    18    20    25   ar
    19    20    18    1
    20    14    13    2
    21     6     7   ar
    22     6     5   ar
    23     8     5    1
    24     7     2   ar
    25     5     4   ar
    26    13    12    1
    27    13    15   am
    28    18    19    2
    29    18     1    1
    30     2     1    1
    31     2     3   ar
    32     4     3   ar
    33    17    15    1
    34    15    16    1
@<TRIPOS>MOLECULE
./../dock_file/temp/5d5b8a25041b0e88f5bdd75f41f2935b/Camostat_Ligand_CID_2536:hmTMPRSS11_B:20230418100831/Camostat_Ligand_CID_2536:hmTMPRSS11_B_out_3.pdbqt
 33 34 0 0 0
SMALL
GASTEIGER

@<TRIPOS>ATOM
      1  O         11.9750   -1.3990   38.2880 O.3     1  LIG1       -0.2750
      2  C         12.6090   -1.8060   37.1550 C.ar    1  LIG1        0.0790
      3  C         11.8730   -2.0800   36.0020 C.ar    1  LIG1        0.0380
      4  C         12.5230   -2.4980   34.8420 C.ar    1  LIG1        0.0100
      5  C         13.9110   -2.6400   34.8320 C.ar    1  LIG1       -0.0490
      6  C         14.6470   -2.3650   35.9850 C.ar    1  LIG1        0.0100
      7  C         13.9960   -1.9480   37.1460 C.ar    1  LIG1        0.0380
      8  C         14.6140   -3.0910   33.5780 C.3     1  LIG1        0.1490
      9  C         14.3450   -4.5380   33.2400 C.2     1  LIG1        0.2630
     10  O         14.4750   -5.4810   34.0080 O.2     1  LIG1       -0.2650
     11  O         13.9280   -4.6350   31.9330 O.3     1  LIG1       -0.3120
     12  C         14.6600   -5.5150   31.1080 C.3     1  LIG1        0.2810
     13  C         15.0610   -4.8030   29.8330 C.2     1  LIG1        0.2430
     14  O         14.2890   -3.9700   29.3500 O.2     1  LIG1       -0.2710
     15  N         16.2990   -5.1290   29.2770 N.am    1  LIG1       -0.3590
     16  C         17.2460   -6.0980   29.8260 C.3     1  LIG1        0.1520
     17  C         16.7330   -4.4640   28.0550 C.3     1  LIG1        0.1520
     18  C         11.2220   -2.3950   38.9140 C.2     1  LIG1        0.2980
     19  O         11.6600   -3.4420   39.3660 O.2     1  LIG1       -0.2590
     20  C          9.7820   -2.0320   38.9560 C.ar    1  LIG1        0.0400
     21  C          8.8880   -2.6250   38.0660 C.ar    1  LIG1        0.0200
     22  C          7.5360   -2.2840   38.1050 C.ar    1  LIG1        0.0330
     23  C          7.0780   -1.3490   39.0330 C.ar    1  LIG1        0.0750
     24  C          7.9730   -0.7550   39.9230 C.ar    1  LIG1        0.0330
     25  C          9.3250   -1.0960   39.8840 C.ar    1  LIG1        0.0200
     26  N          5.7220   -1.0080   39.0720 N.pl3   1  LIG1       -0.0660
     27  C          5.2560   -0.1600   38.1860 C.cat   1  LIG1        0.6920
     28  N          5.9590    0.4640   37.1780 N.pl3   1  LIG1       -0.2330
     29  N          3.9300    0.2010   38.1900 N.pl3   1  LIG1       -0.2330
     30  H          6.9210    0.2900   37.0680 H       1  LIG1        0.1740
     31  H          5.4980    1.0860   36.5690 H       1  LIG1        0.1740
     32  H          3.3190   -0.1770   38.8620 H       1  LIG1        0.1740
     33  H          3.5920    0.8380   37.5190 H       1  LIG1        0.1740
@<TRIPOS>BOND
     1    17    15    1
     2    15    16    1
     3    15    13   am
     4    14    13    2
     5    13    12    1
     6    12    11    1
     7    11     9    1
     8     9     8    1
     9     9    10    2
    10     8     5    1
    11     5     4   ar
    12     5     6   ar
    13     4     3   ar
    14     6     7   ar
    15     3     2   ar
    16    31    28    1
    17    30    28    1
    18     7     2   ar
    19     2     1    1
    20    28    27    1
    21    33    29    1
    22    21    22   ar
    23    21    20   ar
    24    22    23   ar
    25    27    29    1
    26    27    26    2
    27    29    32    1
    28     1    18    1
    29    18    20    1
    30    18    19    2
    31    20    25   ar
    32    23    26    1
    33    23    24   ar
    34    25    24   ar
@<TRIPOS>MOLECULE
./../dock_file/temp/5d5b8a25041b0e88f5bdd75f41f2935b/Camostat_Ligand_CID_2536:hmTMPRSS11_B:20230418100831/Camostat_Ligand_CID_2536:hmTMPRSS11_B_out_3.pdbqt
 33 34 0 0 0
SMALL
GASTEIGER

@<TRIPOS>ATOM
      1  O         -1.9090    6.6110   37.3260 O.3     1  LIG1       -0.2750
      2  C         -0.7550    7.2960   37.1000 C.ar    1  LIG1        0.0790
      3  C          0.4660    6.6210   37.0870 C.ar    1  LIG1        0.0380
      4  C          1.6480    7.3230   36.8550 C.ar    1  LIG1        0.0100
      5  C          1.6100    8.7000   36.6340 C.ar    1  LIG1       -0.0490
      6  C          0.3890    9.3750   36.6460 C.ar    1  LIG1        0.0100
      7  C         -0.7940    8.6720   36.8780 C.ar    1  LIG1        0.0380
      8  C          2.8870    9.4590   36.3820 C.3     1  LIG1        0.1490
      9  C          3.4530   10.0900   37.6330 C.2     1  LIG1        0.2630
     10  O          3.8670    9.4800   38.6090 O.2     1  LIG1       -0.2650
     11  O          3.4340   11.4590   37.5060 O.3     1  LIG1       -0.3120
     12  C          2.9730   12.1830   38.6270 C.3     1  LIG1        0.2810
     13  C          4.0070   13.2150   39.0270 C.2     1  LIG1        0.2430
     14  O          4.4810   13.9490   38.1550 O.2     1  LIG1       -0.2710
     15  N          4.3610   13.2810   40.3750 N.am    1  LIG1       -0.3590
     16  C          3.8110   12.4400   41.4370 C.3     1  LIG1        0.1520
     17  C          5.3450   14.2630   40.8100 C.3     1  LIG1        0.1520
     18  C         -2.2710    5.7380   36.2980 C.2     1  LIG1        0.2980
     19  O         -2.2010    5.9770   35.1020 O.2     1  LIG1       -0.2590
     20  C         -2.7800    4.4530   36.8410 C.ar    1  LIG1        0.0400
     21  C         -3.0460    3.3890   35.9800 C.ar    1  LIG1        0.0200
     22  C         -3.5240    2.1810   36.4910 C.ar    1  LIG1        0.0330
     23  C         -3.7350    2.0390   37.8620 C.ar    1  LIG1        0.0750
     24  C         -3.4690    3.1030   38.7230 C.ar    1  LIG1        0.0330
     25  C         -2.9920    4.3100   38.2130 C.ar    1  LIG1        0.0200
     26  N         -4.2140    0.8280   38.3740 N.pl3   1  LIG1       -0.0660
     27  C         -5.5090    0.6570   38.4900 C.cat   1  LIG1        0.6920
     28  N         -6.5030    1.5540   38.1600 N.pl3   1  LIG1       -0.2330
     29  N         -6.0210   -0.5180   38.9880 N.pl3   1  LIG1       -0.2330
     30  H         -6.2670    2.4350   37.7930 H       1  LIG1        0.1740
     31  H         -7.4480    1.3120   38.2940 H       1  LIG1        0.1740
     32  H         -5.4130   -1.2430   39.2610 H       1  LIG1        0.1740
     33  H         -6.9950   -0.6340   39.0710 H       1  LIG1        0.1740
@<TRIPOS>BOND
     1    19    18    2
     2    21    22   ar
     3    21    20   ar
     4    18    20    1
     5    18     1    1
     6     8     5    1
     7     8     9    1
     8    22    23   ar
     9     5     6   ar
    10     5     4   ar
    11     6     7   ar
    12    20    25   ar
    13     4     3   ar
    14     7     2   ar
    15     3     2   ar
    16     2     1    1
    17    11     9    1
    18    11    12    1
    19     9    10    2
    20    30    28    1
    21    23    26    1
    22    23    24   ar
    23    14    13    2
    24    28    31    1
    25    28    27    1
    26    25    24   ar
    27    26    27    2
    28    27    29    1
    29    12    13    1
    30    29    33    1
    31    29    32    1
    32    13    15   am
    33    15    17    1
    34    15    16    1
