@<TRIPOS>MOLECULE
./../dock_file/temp/5d5b8a25041b0e88f5bdd75f41f2935b/Camostat_Ligand_CID_2536:hmTMPRSS11_B:20230418100831/Camostat_Ligand_CID_2536:hmTMPRSS11_B_out_5.pdbqt
 33 34 0 0 0
SMALL
GASTEIGER

@<TRIPOS>ATOM
      1  O         -6.5360    6.6100   16.9690 O.3     1  LIG1       -0.2750
      2  C         -6.7070    7.9340   17.2330 C.ar    1  LIG1        0.0790
      3  C         -6.7240    8.8580   16.1880 C.ar    1  LIG1        0.0380
      4  C         -6.8990   10.2140   16.4590 C.ar    1  LIG1        0.0100
      5  C         -7.0590   10.6480   17.7760 C.ar    1  LIG1       -0.0490
      6  C         -7.0420    9.7240   18.8210 C.ar    1  LIG1        0.0100
      7  C         -6.8670    8.3660   18.5490 C.ar    1  LIG1        0.0380
      8  C         -7.2490   12.1130   18.0690 C.3     1  LIG1        0.1490
      9  C         -5.9750   12.7950   18.5100 C.2     1  LIG1        0.2630
     10  O         -5.1130   13.2390   17.7630 O.2     1  LIG1       -0.2650
     11  O         -5.9310   12.8430   19.8830 O.3     1  LIG1       -0.3120
     12  C         -5.1730   13.8920   20.4470 C.3     1  LIG1        0.2810
     13  C         -5.5570   14.0730   21.9010 C.2     1  LIG1        0.2430
     14  O         -5.0330   13.3440   22.7480 O.2     1  LIG1       -0.2710
     15  N         -6.4860   15.0700   22.2010 N.am    1  LIG1       -0.3590
     16  C         -7.1160   15.9610   21.2300 C.3     1  LIG1        0.1520
     17  C         -6.8800   15.2880   23.5870 C.3     1  LIG1        0.1520
     18  C         -5.2000    6.2060   16.8970 C.2     1  LIG1        0.2980
     19  O         -4.3340    6.4590   17.7200 O.2     1  LIG1       -0.2590
     20  C         -4.9430    5.4240   15.6610 C.ar    1  LIG1        0.0400
     21  C         -3.6680    4.9230   15.4050 C.ar    1  LIG1        0.0200
     22  C         -3.4260    4.1890   14.2440 C.ar    1  LIG1        0.0330
     23  C         -4.4610    3.9560   13.3380 C.ar    1  LIG1        0.0750
     24  C         -5.7370    4.4570   13.5930 C.ar    1  LIG1        0.0330
     25  C         -5.9790    5.1920   14.7540 C.ar    1  LIG1        0.0200
     26  N         -4.2190    3.2200   12.1740 N.pl3   1  LIG1       -0.0660
     27  C         -4.6800    1.9950   12.0910 C.cat   1  LIG1        0.6920
     28  N         -5.4020    1.3090   13.0430 N.pl3   1  LIG1       -0.2330
     29  N         -4.4630    1.2370   10.9640 N.pl3   1  LIG1       -0.2330
     30  H         -5.6230    1.7410   13.8990 H       1  LIG1        0.1740
     31  H         -5.6960    0.3850   12.8670 H       1  LIG1        0.1740
     32  H         -3.9590    1.6130   10.2080 H       1  LIG1        0.1740
     33  H         -4.8150    0.3190   10.9140 H       1  LIG1        0.1740
@<TRIPOS>BOND
     1    32    29    1
     2    33    29    1
     3    29    27    1
     4    27    26    2
     5    27    28    1
     6    26    23    1
     7    31    28    1
     8    28    30    1
     9    23    24   ar
    10    23    22   ar
    11    24    25   ar
    12    22    21   ar
    13    25    20   ar
    14    21    20   ar
    15    20    18    1
    16     3     4   ar
    17     3     2   ar
    18     4     5   ar
    19    18     1    1
    20    18    19    2
    21     1     2    1
    22     2     7   ar
    23    10     9    2
    24     5     8    1
    25     5     6   ar
    26     8     9    1
    27     9    11    1
    28     7     6   ar
    29    11    12    1
    30    12    13    1
    31    16    15    1
    32    13    15   am
    33    13    14    2
    34    15    17    1
@<TRIPOS>MOLECULE
./../dock_file/temp/5d5b8a25041b0e88f5bdd75f41f2935b/Camostat_Ligand_CID_2536:hmTMPRSS11_B:20230418100831/Camostat_Ligand_CID_2536:hmTMPRSS11_B_out_5.pdbqt
 33 34 0 0 0
SMALL
GASTEIGER

@<TRIPOS>ATOM
      1  O         -4.5860    7.2740   16.4940 O.3     1  LIG1       -0.2750
      2  C         -5.6830    6.5950   16.9290 C.ar    1  LIG1        0.0790
      3  C         -5.5430    5.3190   17.4760 C.ar    1  LIG1        0.0380
      4  C         -6.6660    4.6240   17.9210 C.ar    1  LIG1        0.0100
      5  C         -7.9310    5.2050   17.8220 C.ar    1  LIG1       -0.0490
      6  C         -8.0710    6.4810   17.2760 C.ar    1  LIG1        0.0100
      7  C         -6.9470    7.1760   16.8300 C.ar    1  LIG1        0.0380
      8  C         -9.1450    4.4550   18.3040 C.3     1  LIG1        0.1490
      9  C         -9.5030    3.2830   17.4200 C.2     1  LIG1        0.2630
     10  O         -9.5740    3.3120   16.1990 O.2     1  LIG1       -0.2650
     11  O         -9.7340    2.1740   18.1990 O.3     1  LIG1       -0.3120
     12  C        -10.9570    1.5030   17.9810 C.3     1  LIG1        0.2810
     13  C        -10.7360    0.0060   18.0480 C.2     1  LIG1        0.2430
     14  O         -9.5910   -0.4170   18.2320 O.2     1  LIG1       -0.2710
     15  N        -11.8540   -0.8160   17.9060 N.am    1  LIG1       -0.3590
     16  C        -13.2250   -0.3530   17.7030 C.3     1  LIG1        0.1520
     17  C        -11.6930   -2.2630   17.9720 C.3     1  LIG1        0.1520
     18  C         -4.6750    7.7220   15.1740 C.2     1  LIG1        0.2980
     19  O         -4.8080    8.8850   14.8240 O.2     1  LIG1       -0.2590
     20  C         -4.6020    6.5890   14.2170 C.ar    1  LIG1        0.0400
     21  C         -5.6880    6.3030   13.3910 C.ar    1  LIG1        0.0200
     22  C         -5.6190    5.2390   12.4920 C.ar    1  LIG1        0.0330
     23  C         -4.4650    4.4590   12.4200 C.ar    1  LIG1        0.0750
     24  C         -3.3780    4.7440   13.2470 C.ar    1  LIG1        0.0330
     25  C         -3.4470    5.8090   14.1460 C.ar    1  LIG1        0.0200
     26  N         -4.3960    3.3920   11.5190 N.pl3   1  LIG1       -0.0660
     27  C         -4.7410    2.1940   11.9270 C.cat   1  LIG1        0.6920
     28  N         -5.1810    1.8350   13.1830 N.pl3   1  LIG1       -0.2330
     29  N         -4.6880    1.1180   11.0730 N.pl3   1  LIG1       -0.2330
     30  H         -5.2630    2.5150   13.8890 H       1  LIG1        0.1740
     31  H         -5.4120    0.8970   13.3740 H       1  LIG1        0.1740
     32  H         -4.3900    1.2420   10.1430 H       1  LIG1        0.1740
     33  H         -4.9500    0.2240   11.3910 H       1  LIG1        0.1740
@<TRIPOS>BOND
     1    32    29    1
     2    29    33    1
     3    29    27    1
     4    26    27    2
     5    26    23    1
     6    27    28    1
     7    23    22   ar
     8    23    24   ar
     9    22    21   ar
    10    28    31    1
    11    28    30    1
    12    24    25   ar
    13    21    20   ar
    14    25    20   ar
    15    20    18    1
    16    19    18    2
    17    18     1    1
    18    10     9    2
    19     1     2    1
    20     7     2   ar
    21     7     6   ar
    22     2     3   ar
    23     6     5   ar
    24     9    11    1
    25     9     8    1
    26     3     4   ar
    27    16    15    1
    28     5     4   ar
    29     5     8    1
    30    15    17    1
    31    15    13   am
    32    12    13    1
    33    12    11    1
    34    13    14    2
@<TRIPOS>MOLECULE
./../dock_file/temp/5d5b8a25041b0e88f5bdd75f41f2935b/Camostat_Ligand_CID_2536:hmTMPRSS11_B:20230418100831/Camostat_Ligand_CID_2536:hmTMPRSS11_B_out_5.pdbqt
 33 34 0 0 0
SMALL
GASTEIGER

@<TRIPOS>ATOM
      1  O         -4.7140    6.3930   13.2080 O.3     1  LIG1       -0.2750
      2  C         -4.6960    6.4670   14.5670 C.ar    1  LIG1        0.0790
      3  C         -5.1010    7.6380   15.2070 C.ar    1  LIG1        0.0380
      4  C         -5.0830    7.7140   16.5990 C.ar    1  LIG1        0.0100
      5  C         -4.6610    6.6180   17.3520 C.ar    1  LIG1       -0.0490
      6  C         -4.2560    5.4470   16.7120 C.ar    1  LIG1        0.0100
      7  C         -4.2740    5.3710   15.3190 C.ar    1  LIG1        0.0380
      8  C         -4.6420    6.6990   18.8570 C.3     1  LIG1        0.1490
      9  C         -6.0230    6.8080   19.4590 C.2     1  LIG1        0.2630
     10  O         -6.5520    7.8440   19.8380 O.2     1  LIG1       -0.2650
     11  O         -6.5990    5.5610   19.5150 O.3     1  LIG1       -0.3120
     12  C         -8.0080    5.5200   19.4450 C.3     1  LIG1        0.2810
     13  C         -8.4360    4.6350   18.2930 C.2     1  LIG1        0.2430
     14  O         -8.5260    3.4180   18.4810 O.2     1  LIG1       -0.2710
     15  N         -8.7140    5.2550   17.0740 N.am    1  LIG1       -0.3590
     16  C         -8.6330    6.6910   16.8170 C.3     1  LIG1        0.1520
     17  C         -9.1370    4.4460   15.9390 C.3     1  LIG1        0.1520
     18  C         -3.9530    5.3470   12.6800 C.2     1  LIG1        0.2980
     19  O         -2.7410    5.3550   12.5240 O.2     1  LIG1       -0.2590
     20  C         -4.8130    4.1960   12.3030 C.ar    1  LIG1        0.0400
     21  C         -4.2340    3.0150   11.8420 C.ar    1  LIG1        0.0200
     22  C         -5.0420    1.9340   11.4880 C.ar    1  LIG1        0.0330
     23  C         -6.4290    2.0350   11.5950 C.ar    1  LIG1        0.0750
     24  C         -7.0090    3.2170   12.0570 C.ar    1  LIG1        0.0330
     25  C         -6.2010    4.2980   12.4100 C.ar    1  LIG1        0.0200
     26  N         -7.2390    0.9510   11.2410 N.pl3   1  LIG1       -0.0660
     27  C         -7.3640   -0.0480   12.0800 C.cat   1  LIG1        0.6920
     28  N         -6.7750   -0.1750   13.3200 N.pl3   1  LIG1       -0.2330
     29  N         -8.1510   -1.1320   11.7700 N.pl3   1  LIG1       -0.2330
     30  H         -6.1850    0.5350   13.6600 H       1  LIG1        0.1740
     31  H         -6.9440   -0.9790   13.8640 H       1  LIG1        0.1740
     32  H         -8.6290   -1.1640   10.9100 H       1  LIG1        0.1740
     33  H         -8.2370   -1.8770   12.4090 H       1  LIG1        0.1740
@<TRIPOS>BOND
     1    32    29    1
     2    26    23    1
     3    26    27    2
     4    22    23   ar
     5    22    21   ar
     6    23    24   ar
     7    29    27    1
     8    29    33    1
     9    21    20   ar
    10    24    25   ar
    11    27    28    1
    12    20    25   ar
    13    20    18    1
    14    19    18    2
    15    18     1    1
    16     1     2    1
    17    28    30    1
    18    28    31    1
    19     2     3   ar
    20     2     7   ar
    21     3     4   ar
    22     7     6   ar
    23    17    15    1
    24     4     5   ar
    25     6     5   ar
    26    16    15    1
    27    15    13   am
    28     5     8    1
    29    13    14    2
    30    13    12    1
    31     8     9    1
    32    12    11    1
    33     9    11    1
    34     9    10    2
@<TRIPOS>MOLECULE
./../dock_file/temp/5d5b8a25041b0e88f5bdd75f41f2935b/Camostat_Ligand_CID_2536:hmTMPRSS11_B:20230418100831/Camostat_Ligand_CID_2536:hmTMPRSS11_B_out_5.pdbqt
 33 34 0 0 0
SMALL
GASTEIGER

@<TRIPOS>ATOM
      1  O         -6.9460    1.2690   10.8800 O.3     1  LIG1       -0.2750
      2  C         -6.2740    2.0450   11.7740 C.ar    1  LIG1        0.0790
      3  C         -6.9720    2.7150   12.7790 C.ar    1  LIG1        0.0380
      4  C         -6.2840    3.5090   13.6950 C.ar    1  LIG1        0.0100
      5  C         -4.8970    3.6330   13.6080 C.ar    1  LIG1       -0.0490
      6  C         -4.1990    2.9630   12.6030 C.ar    1  LIG1        0.0100
      7  C         -4.8880    2.1680   11.6860 C.ar    1  LIG1        0.0380
      8  C         -4.1530    4.4920   14.5980 C.3     1  LIG1        0.1490
      9  C         -4.6040    5.9340   14.5830 C.2     1  LIG1        0.2630
     10  O         -4.1890    6.7970   13.8220 O.2     1  LIG1       -0.2650
     11  O         -5.5540    6.1280   15.5570 O.3     1  LIG1       -0.3120
     12  C         -5.0940    6.1110   16.8910 C.3     1  LIG1        0.2810
     13  C         -5.9550    5.1760   17.7150 C.2     1  LIG1        0.2430
     14  O         -6.6550    4.3450   17.1310 O.2     1  LIG1       -0.2710
     15  N         -5.8970    5.3060   19.1030 N.am    1  LIG1       -0.3590
     16  C         -5.0700    6.2660   19.8310 C.3     1  LIG1        0.1520
     17  C         -6.7010    4.4230   19.9390 C.3     1  LIG1        0.1520
     18  C         -6.7650   -0.1040   11.0600 C.2     1  LIG1        0.2980
     19  O         -6.0080   -0.8140   10.4150 O.2     1  LIG1       -0.2590
     20  C         -7.6350   -0.6210   12.1470 C.ar    1  LIG1        0.0400
     21  C         -7.0710   -1.0520   13.3460 C.ar    1  LIG1        0.0200
     22  C         -7.8880   -1.5370   14.3670 C.ar    1  LIG1        0.0330
     23  C         -9.2700   -1.5910   14.1880 C.ar    1  LIG1        0.0750
     24  C         -9.8350   -1.1600   12.9870 C.ar    1  LIG1        0.0330
     25  C         -9.0180   -0.6750   11.9670 C.ar    1  LIG1        0.0200
     26  N        -10.0900   -2.0780   15.2120 N.pl3   1  LIG1       -0.0660
     27  C        -10.5110   -1.2470   16.1350 C.cat   1  LIG1        0.6920
     28  N        -10.2390    0.1000   16.2320 N.pl3   1  LIG1       -0.2330
     29  N        -11.3190   -1.6850   17.1580 N.pl3   1  LIG1       -0.2330
     30  H         -9.6700    0.5370   15.5590 H       1  LIG1        0.1740
     31  H        -10.6140    0.6250   16.9770 H       1  LIG1        0.1740
     32  H        -11.5880   -2.6310   17.2030 H       1  LIG1        0.1740
     33  H        -11.6290   -1.0510   17.8450 H       1  LIG1        0.1740
@<TRIPOS>BOND
     1    19    18    2
     2     1    18    1
     3     1     2    1
     4    18    20    1
     5     7     2   ar
     6     7     6   ar
     7     2     3   ar
     8    25    20   ar
     9    25    24   ar
    10    20    21   ar
    11     6     5   ar
    12     3     4   ar
    13    24    23   ar
    14    21    22   ar
    15     5     4   ar
    16     5     8    1
    17    10     9    2
    18    23    22   ar
    19    23    26    1
    20     9     8    1
    21     9    11    1
    22    26    27    2
    23    11    12    1
    24    30    28    1
    25    27    28    1
    26    27    29    1
    27    28    31    1
    28    12    13    1
    29    14    13    2
    30    29    32    1
    31    29    33    1
    32    13    15   am
    33    15    16    1
    34    15    17    1
@<TRIPOS>MOLECULE
./../dock_file/temp/5d5b8a25041b0e88f5bdd75f41f2935b/Camostat_Ligand_CID_2536:hmTMPRSS11_B:20230418100831/Camostat_Ligand_CID_2536:hmTMPRSS11_B_out_5.pdbqt
 33 34 0 0 0
SMALL
GASTEIGER

@<TRIPOS>ATOM
      1  O         -7.7620   10.7320   18.2160 O.3     1  LIG1       -0.2750
      2  C         -7.1110    9.5380   18.1690 C.ar    1  LIG1        0.0790
      3  C         -6.4350    9.1560   17.0100 C.ar    1  LIG1        0.0380
      4  C         -5.7690    7.9330   16.9620 C.ar    1  LIG1        0.0100
      5  C         -5.7770    7.0890   18.0730 C.ar    1  LIG1       -0.0490
      6  C         -6.4530    7.4710   19.2320 C.ar    1  LIG1        0.0100
      7  C         -7.1200    8.6950   19.2800 C.ar    1  LIG1        0.0380
      8  C         -5.0570    5.7670   18.0210 C.3     1  LIG1        0.1490
      9  C         -5.9090    4.6540   17.4580 C.2     1  LIG1        0.2630
     10  O         -6.9150    4.1960   17.9820 O.2     1  LIG1       -0.2650
     11  O         -5.3810    4.2330   16.2600 O.3     1  LIG1       -0.3120
     12  C         -5.9530    4.7890   15.0950 C.3     1  LIG1        0.2810
     13  C         -4.8550    5.2790   14.1740 C.2     1  LIG1        0.2430
     14  O         -4.4190    6.4230   14.3250 O.2     1  LIG1       -0.2710
     15  N         -4.3900    4.3930   13.2010 N.am    1  LIG1       -0.3590
     16  C         -4.8700    3.0270   13.0010 C.3     1  LIG1        0.1520
     17  C         -3.3290    4.8150   12.2960 C.3     1  LIG1        0.1520
     18  C         -6.9180   11.8440   18.2870 C.2     1  LIG1        0.2980
     19  O         -6.2770   12.3120   17.3580 O.2     1  LIG1       -0.2590
     20  C         -6.8760   12.3970   19.6640 C.ar    1  LIG1        0.0400
     21  C         -5.7860   13.1630   20.0750 C.ar    1  LIG1        0.0200
     22  C         -5.7470   13.6840   21.3690 C.ar    1  LIG1        0.0330
     23  C         -6.7980   13.4370   22.2520 C.ar    1  LIG1        0.0750
     24  C         -7.8880   12.6700   21.8420 C.ar    1  LIG1        0.0330
     25  C         -7.9270   12.1500   20.5480 C.ar    1  LIG1        0.0200
     26  N         -6.7580   13.9590   23.5490 N.pl3   1  LIG1       -0.0660
     27  C         -7.2740   15.1440   23.7720 C.cat   1  LIG1        0.6920
     28  N         -7.8750   15.9780   22.8540 N.pl3   1  LIG1       -0.2330
     29  N         -7.2550   15.6930   25.0320 N.pl3   1  LIG1       -0.2330
     30  H         -7.9510   15.7020   21.9130 H       1  LIG1        0.1740
     31  H         -8.2270   16.8530   23.1410 H       1  LIG1        0.1740
     32  H         -6.8530   15.1950   25.7800 H       1  LIG1        0.1740
     33  H         -7.6460   16.5830   25.1870 H       1  LIG1        0.1740
@<TRIPOS>BOND
     1    17    15    1
     2    16    15    1
     3    15    13   am
     4    13    14    2
     5    13    12    1
     6    12    11    1
     7    11     9    1
     8     4     3   ar
     9     4     5   ar
    10     3     2   ar
    11    19    18    2
    12     9    10    2
    13     9     8    1
    14     8     5    1
    15     5     6   ar
    16     2     1    1
    17     2     7   ar
    18     1    18    1
    19    18    20    1
    20     6     7   ar
    21    20    21   ar
    22    20    25   ar
    23    21    22   ar
    24    25    24   ar
    25    22    23   ar
    26    24    23   ar
    27    30    28    1
    28    23    26    1
    29    28    31    1
    30    28    27    1
    31    26    27    2
    32    27    29    1
    33    29    33    1
    34    29    32    1
@<TRIPOS>MOLECULE
./../dock_file/temp/5d5b8a25041b0e88f5bdd75f41f2935b/Camostat_Ligand_CID_2536:hmTMPRSS11_B:20230418100831/Camostat_Ligand_CID_2536:hmTMPRSS11_B_out_5.pdbqt
 33 34 0 0 0
SMALL
GASTEIGER

@<TRIPOS>ATOM
      1  O         -7.7580   10.7920   18.3220 O.3     1  LIG1       -0.2750
      2  C         -7.2170    9.5430   18.3200 C.ar    1  LIG1        0.0790
      3  C         -6.6490    9.0290   17.1540 C.ar    1  LIG1        0.0380
      4  C         -6.0950    7.7500   17.1530 C.ar    1  LIG1        0.0100
      5  C         -6.1080    6.9830   18.3190 C.ar    1  LIG1       -0.0490
      6  C         -6.6770    7.4960   19.4850 C.ar    1  LIG1        0.0100
      7  C         -7.2310    8.7770   19.4860 C.ar    1  LIG1        0.0380
      8  C         -5.5090    5.6000   18.3180 C.3     1  LIG1        0.1490
      9  C         -6.5060    4.5270   18.6900 C.2     1  LIG1        0.2630
     10  O         -6.5100    3.8960   19.7370 O.2     1  LIG1       -0.2650
     11  O         -7.4120    4.3680   17.6680 O.3     1  LIG1       -0.3120
     12  C         -8.7470    4.1170   18.0510 C.3     1  LIG1        0.2810
     13  C         -9.4100    5.4130   18.4690 C.2     1  LIG1        0.2430
     14  O         -9.6590    5.5940   19.6640 O.2     1  LIG1       -0.2710
     15  N         -9.6950    6.3410   17.4670 N.am    1  LIG1       -0.3590
     16  C         -9.4020    6.1700   16.0450 C.3     1  LIG1        0.1520
     17  C        -10.3240    7.6070   17.8210 C.3     1  LIG1        0.1520
     18  C         -6.8210   11.8240   18.4150 C.2     1  LIG1        0.2980
     19  O         -6.0860   12.2020   17.5150 O.2     1  LIG1       -0.2590
     20  C         -6.8080   12.4140   19.7770 C.ar    1  LIG1        0.0400
     21  C         -5.7260   13.1910   20.1900 C.ar    1  LIG1        0.0200
     22  C         -5.7150   13.7460   21.4700 C.ar    1  LIG1        0.0330
     23  C         -6.7850   13.5240   22.3370 C.ar    1  LIG1        0.0750
     24  C         -7.8670   12.7470   21.9240 C.ar    1  LIG1        0.0330
     25  C         -7.8790   12.1920   20.6440 C.ar    1  LIG1        0.0200
     26  N         -6.7730   14.0810   23.6200 N.pl3   1  LIG1       -0.0660
     27  C         -7.2910   15.2720   23.7990 C.cat   1  LIG1        0.6920
     28  N         -7.8710   16.0820   22.8460 N.pl3   1  LIG1       -0.2330
     29  N         -7.3000   15.8540   25.0440 N.pl3   1  LIG1       -0.2330
     30  H         -7.9270   15.7800   21.9110 H       1  LIG1        0.1740
     31  H         -8.2280   16.9640   23.1010 H       1  LIG1        0.1740
     32  H         -6.9150   15.3770   25.8140 H       1  LIG1        0.1740
     33  H         -7.6920   16.7490   25.1660 H       1  LIG1        0.1740
@<TRIPOS>BOND
     1    16    15    1
     2     4     3   ar
     3     4     5   ar
     4     3     2   ar
     5    15    17    1
     6    15    13   am
     7    19    18    2
     8    11    12    1
     9    11     9    1
    10    12    13    1
    11     8     5    1
    12     8     9    1
    13     5     6   ar
    14     2     1    1
    15     2     7   ar
    16     1    18    1
    17    18    20    1
    18    13    14    2
    19     9    10    2
    20     6     7   ar
    21    20    21   ar
    22    20    25   ar
    23    21    22   ar
    24    25    24   ar
    25    22    23   ar
    26    30    28    1
    27    24    23   ar
    28    23    26    1
    29    28    31    1
    30    28    27    1
    31    26    27    2
    32    27    29    1
    33    29    33    1
    34    29    32    1
@<TRIPOS>MOLECULE
./../dock_file/temp/5d5b8a25041b0e88f5bdd75f41f2935b/Camostat_Ligand_CID_2536:hmTMPRSS11_B:20230418100831/Camostat_Ligand_CID_2536:hmTMPRSS11_B_out_5.pdbqt
 33 34 0 0 0
SMALL
GASTEIGER

@<TRIPOS>ATOM
      1  O          0.0810    7.5450    6.5940 O.3     1  LIG1       -0.2750
      2  C         -0.9290    6.6750    6.3200 C.ar    1  LIG1        0.0790
      3  C         -2.2550    7.0630    6.5100 C.ar    1  LIG1        0.0380
      4  C         -3.2890    6.1710    6.2300 C.ar    1  LIG1        0.0100
      5  C         -2.9980    4.8900    5.7590 C.ar    1  LIG1       -0.0490
      6  C         -1.6710    4.5020    5.5690 C.ar    1  LIG1        0.0100
      7  C         -0.6370    5.3950    5.8500 C.ar    1  LIG1        0.0380
      8  C         -4.1150    3.9260    5.4560 C.3     1  LIG1        0.1490
      9  C         -4.9590    3.6030    6.6670 C.2     1  LIG1        0.2630
     10  O         -6.0980    4.0020    6.8640 O.2     1  LIG1       -0.2650
     11  O         -4.2490    2.7880    7.5170 O.3     1  LIG1       -0.3120
     12  C         -4.9660    2.2470    8.6070 C.3     1  LIG1        0.2810
     13  C         -4.8870    0.7350    8.5670 C.2     1  LIG1        0.2430
     14  O         -4.3370    0.1940    7.6040 O.2     1  LIG1       -0.2710
     15  N         -5.4390    0.0350    9.6410 N.am    1  LIG1       -0.3590
     16  C         -6.0830    0.6390   10.8050 C.3     1  LIG1        0.1520
     17  C         -5.3790   -1.4210    9.6530 C.3     1  LIG1        0.1520
     18  C         -0.0020    8.1450    7.8530 C.2     1  LIG1        0.2980
     19  O         -0.1230    7.5560    8.9160 O.2     1  LIG1       -0.2590
     20  C          0.0600    9.6250    7.7460 C.ar    1  LIG1        0.0400
     21  C         -0.0140   10.4100    8.8960 C.ar    1  LIG1        0.0200
     22  C          0.0450   11.8000    8.7960 C.ar    1  LIG1        0.0330
     23  C          0.1760   12.4050    7.5460 C.ar    1  LIG1        0.0750
     24  C          0.2500   11.6200    6.3960 C.ar    1  LIG1        0.0330
     25  C          0.1910   10.2290    6.4960 C.ar    1  LIG1        0.0200
     26  N          0.2350   13.7990    7.4460 N.pl3   1  LIG1       -0.0660
     27  C          1.4070   14.3780    7.3370 C.cat   1  LIG1        0.6920
     28  N          2.6410   13.7650    7.3080 N.pl3   1  LIG1       -0.2330
     29  N          1.5080   15.7460    7.2360 N.pl3   1  LIG1       -0.2330
     30  H          2.7060   12.7860    7.3730 H       1  LIG1        0.1740
     31  H          3.4580   14.3090    7.2230 H       1  LIG1        0.1740
     32  H          0.6960   16.3010    7.2440 H       1  LIG1        0.1740
     33  H          2.3930   16.1690    7.1550 H       1  LIG1        0.1740
@<TRIPOS>BOND
     1     8     5    1
     2     8     9    1
     3     6     5   ar
     4     6     7   ar
     5     5     4   ar
     6     7     2   ar
     7     4     3   ar
     8     2     3   ar
     9     2     1    1
    10    24    25   ar
    11    24    23   ar
    12    25    20   ar
    13     1    18    1
    14     9    10    2
    15     9    11    1
    16    33    29    1
    17    31    28    1
    18    29    32    1
    19    29    27    1
    20    28    27    1
    21    28    30    1
    22    27    26    2
    23    26    23    1
    24    11    12    1
    25    23    22   ar
    26    14    13    2
    27    20    18    1
    28    20    21   ar
    29    18    19    2
    30    13    12    1
    31    13    15   am
    32    22    21   ar
    33    15    17    1
    34    15    16    1
@<TRIPOS>MOLECULE
./../dock_file/temp/5d5b8a25041b0e88f5bdd75f41f2935b/Camostat_Ligand_CID_2536:hmTMPRSS11_B:20230418100831/Camostat_Ligand_CID_2536:hmTMPRSS11_B_out_5.pdbqt
 33 34 0 0 0
SMALL
GASTEIGER

@<TRIPOS>ATOM
      1  O         -7.7150    9.6130   18.3310 O.3     1  LIG1       -0.2750
      2  C         -7.6670   10.8580   18.8790 C.ar    1  LIG1        0.0790
      3  C         -6.5040   11.6220   18.7760 C.ar    1  LIG1        0.0380
      4  C         -6.4540   12.8970   19.3370 C.ar    1  LIG1        0.0100
      5  C         -7.5690   13.4110   20.0000 C.ar    1  LIG1       -0.0490
      6  C         -8.7320   12.6480   20.1030 C.ar    1  LIG1        0.0100
      7  C         -8.7810   11.3720   19.5420 C.ar    1  LIG1        0.0380
      8  C         -7.5160   14.7890   20.6060 C.3     1  LIG1        0.1490
      9  C         -6.3530   14.9720   21.5540 C.2     1  LIG1        0.2630
     10  O         -5.4460   15.7800   21.4140 O.2     1  LIG1       -0.2650
     11  O         -6.4720   14.0900   22.6010 O.3     1  LIG1       -0.3120
     12  C         -7.5760   14.2840   23.4590 C.3     1  LIG1        0.2810
     13  C         -7.3560   15.5250   24.2990 C.2     1  LIG1        0.2430
     14  O         -6.3580   15.5830   25.0220 O.2     1  LIG1       -0.2710
     15  N         -8.3030   16.5450   24.1990 N.am    1  LIG1       -0.3590
     16  C         -9.4890   16.5190   23.3450 C.3     1  LIG1        0.1520
     17  C         -8.1310   17.7620   24.9810 C.3     1  LIG1        0.1520
     18  C         -7.1520    8.6130   19.1270 C.2     1  LIG1        0.2980
     19  O         -7.2270    8.5450   20.3440 O.2     1  LIG1       -0.2590
     20  C         -6.4160    7.6230   18.3010 C.ar    1  LIG1        0.0400
     21  C         -5.1360    7.2150   18.6760 C.ar    1  LIG1        0.0200
     22  C         -4.4450    6.2850   17.9000 C.ar    1  LIG1        0.0330
     23  C         -5.0330    5.7620   16.7490 C.ar    1  LIG1        0.0750
     24  C         -6.3140    6.1690   16.3730 C.ar    1  LIG1        0.0330
     25  C         -7.0040    7.1000   17.1490 C.ar    1  LIG1        0.0200
     26  N         -4.3400    4.8280   15.9710 N.pl3   1  LIG1       -0.0660
     27  C         -3.7030    5.2430   14.9020 C.cat   1  LIG1        0.6920
     28  N         -3.6240    6.5330   14.4250 N.pl3   1  LIG1       -0.2330
     29  N         -3.0090    4.3570   14.1110 N.pl3   1  LIG1       -0.2330
     30  H         -4.0800    7.2630   14.9020 H       1  LIG1        0.1740
     31  H         -3.1130    6.7240   13.6050 H       1  LIG1        0.1740
     32  H         -2.9870    3.4020   14.3440 H       1  LIG1        0.1740
     33  H         -2.5350    4.6810   13.3110 H       1  LIG1        0.1740
@<TRIPOS>BOND
     1    33    29    1
     2    31    28    1
     3    29    32    1
     4    29    27    1
     5    28    30    1
     6    28    27    1
     7    27    26    2
     8    26    23    1
     9    24    23   ar
    10    24    25   ar
    11    23    22   ar
    12    25    20   ar
    13    22    21   ar
    14    20    21   ar
    15    20    18    1
    16     1     2    1
    17     1    18    1
    18     3     2   ar
    19     3     4   ar
    20     2     7   ar
    21    18    19    2
    22     4     5   ar
    23     7     6   ar
    24     5     6   ar
    25     5     8    1
    26     8     9    1
    27    10     9    2
    28     9    11    1
    29    11    12    1
    30    16    15    1
    31    12    13    1
    32    15    13   am
    33    15    17    1
    34    13    14    2
@<TRIPOS>MOLECULE
./../dock_file/temp/5d5b8a25041b0e88f5bdd75f41f2935b/Camostat_Ligand_CID_2536:hmTMPRSS11_B:20230418100831/Camostat_Ligand_CID_2536:hmTMPRSS11_B_out_5.pdbqt
 33 34 0 0 0
SMALL
GASTEIGER

@<TRIPOS>ATOM
      1  O         -7.1390    0.5780   13.6770 O.3     1  LIG1       -0.2750
      2  C         -6.6680    1.3770   12.6810 C.ar    1  LIG1        0.0790
      3  C         -7.5080    1.7570   11.6330 C.ar    1  LIG1        0.0380
      4  C         -7.0240    2.5750   10.6140 C.ar    1  LIG1        0.0100
      5  C         -5.7000    3.0150   10.6400 C.ar    1  LIG1       -0.0490
      6  C         -4.8600    2.6350   11.6870 C.ar    1  LIG1        0.0100
      7  C         -5.3440    1.8160   12.7080 C.ar    1  LIG1        0.0380
      8  C         -5.1770    3.8990    9.5380 C.3     1  LIG1        0.1490
      9  C         -5.0940    3.1920    8.2050 C.2     1  LIG1        0.2630
     10  O         -5.7020    3.5120    7.1940 O.2     1  LIG1       -0.2650
     11  O         -4.2240    2.1310    8.3020 O.3     1  LIG1       -0.3120
     12  C         -4.6080    0.9470    7.6360 C.3     1  LIG1        0.2810
     13  C         -5.4220    0.0780    8.5720 C.2     1  LIG1        0.2430
     14  O         -4.8780   -0.3800    9.5800 O.2     1  LIG1       -0.2710
     15  N         -6.7580   -0.1500    8.2380 N.am    1  LIG1       -0.3590
     16  C         -7.4410    0.3860    7.0630 C.3     1  LIG1        0.1520
     17  C         -7.5840   -0.9730    9.1120 C.3     1  LIG1        0.1520
     18  C         -7.2320   -0.7730   13.3350 C.2     1  LIG1        0.2980
     19  O         -6.4750   -1.3720   12.5850 O.2     1  LIG1       -0.2590
     20  C         -8.3980   -1.4140   13.9940 C.ar    1  LIG1        0.0400
     21  C         -8.2220   -2.1370   15.1730 C.ar    1  LIG1        0.0200
     22  C         -9.3180   -2.7380   15.7920 C.ar    1  LIG1        0.0330
     23  C        -10.5900   -2.6170   15.2320 C.ar    1  LIG1        0.0750
     24  C        -10.7660   -1.8930   14.0520 C.ar    1  LIG1        0.0330
     25  C         -9.6700   -1.2920   13.4330 C.ar    1  LIG1        0.0200
     26  N        -11.6890   -3.2200   15.8530 N.pl3   1  LIG1       -0.0660
     27  C        -12.3360   -2.5560   16.7800 C.cat   1  LIG1        0.6920
     28  N        -12.0620   -1.2860   17.2420 N.pl3   1  LIG1       -0.2330
     29  N        -13.4210   -3.1120   17.4150 N.pl3   1  LIG1       -0.2330
     30  H        -11.3070   -0.7780   16.8690 H       1  LIG1        0.1740
     31  H        -12.6230   -0.8890   17.9480 H       1  LIG1        0.1740
     32  H        -13.7210   -4.0180   17.1740 H       1  LIG1        0.1740
     33  H        -13.8990   -2.6030   18.1090 H       1  LIG1        0.1740
@<TRIPOS>BOND
     1    16    15    1
     2    10     9    2
     3    12    11    1
     4    12    13    1
     5     9    11    1
     6     9     8    1
     7    15    13   am
     8    15    17    1
     9    13    14    2
    10     8     5    1
    11     4     5   ar
    12     4     3   ar
    13     5     6   ar
    14     3     2   ar
    15     6     7   ar
    16    19    18    2
    17     2     7   ar
    18     2     1    1
    19    18     1    1
    20    18    20    1
    21    25    20   ar
    22    25    24   ar
    23    20    21   ar
    24    24    23   ar
    25    21    22   ar
    26    23    22   ar
    27    23    26    1
    28    26    27    2
    29    27    28    1
    30    27    29    1
    31    30    28    1
    32    32    29    1
    33    28    31    1
    34    29    33    1
