@<TRIPOS>MOLECULE
./../dock_file/temp/5d5b8a25041b0e88f5bdd75f41f2935b/Camostat_Ligand_CID_2536:hmTMPRSS11_B:20230418100831/Camostat_Ligand_CID_2536:hmTMPRSS11_B_out_4.pdbqt
 33 34 0 0 0
SMALL
GASTEIGER

@<TRIPOS>ATOM
      1  O         -2.6880  -11.9790   18.2950 O.3     1  LIG1       -0.2750
      2  C         -2.2070  -13.1880   18.6950 C.ar    1  LIG1        0.0790
      3  C         -2.2320  -14.2740   17.8190 C.ar    1  LIG1        0.0380
      4  C         -1.7390  -15.5120   18.2290 C.ar    1  LIG1        0.0100
      5  C         -1.2200  -15.6650   19.5150 C.ar    1  LIG1       -0.0490
      6  C         -1.1950  -14.5800   20.3910 C.ar    1  LIG1        0.0100
      7  C         -1.6880  -13.3410   19.9800 C.ar    1  LIG1        0.0380
      8  C         -0.6870  -17.0030   19.9580 C.3     1  LIG1        0.1490
      9  C          0.7260  -16.9280   20.4880 C.2     1  LIG1        0.2630
     10  O          1.0380  -16.8980   21.6700 O.2     1  LIG1       -0.2650
     11  O          1.6100  -16.9010   19.4360 O.3     1  LIG1       -0.3120
     12  C          1.3050  -17.7400   18.3420 C.3     1  LIG1        0.2810
     13  C          2.4870  -18.6390   18.0450 C.2     1  LIG1        0.2430
     14  O          3.5630  -18.1210   17.7320 O.2     1  LIG1       -0.2710
     15  N          2.2890  -20.0160   18.1520 N.am    1  LIG1       -0.3590
     16  C          1.0370  -20.6650   18.5330 C.3     1  LIG1        0.1520
     17  C          3.3990  -20.9210   17.8840 C.3     1  LIG1        0.1520
     18  C         -4.0310  -11.7620   18.6120 C.2     1  LIG1        0.2980
     19  O         -4.4490  -11.2980   19.6620 O.2     1  LIG1       -0.2590
     20  C         -4.9190  -12.1860   17.5000 C.ar    1  LIG1        0.0400
     21  C         -6.0980  -12.8780   17.7750 C.ar    1  LIG1        0.0200
     22  C         -6.9320  -13.2770   16.7300 C.ar    1  LIG1        0.0330
     23  C         -6.5870  -12.9840   15.4110 C.ar    1  LIG1        0.0750
     24  C         -5.4070  -12.2920   15.1360 C.ar    1  LIG1        0.0330
     25  C         -4.5730  -11.8940   16.1800 C.ar    1  LIG1        0.0200
     26  N         -7.4240  -13.3840   14.3640 N.pl3   1  LIG1       -0.0660
     27  C         -7.1080  -14.4540   13.6740 C.cat   1  LIG1        0.6920
     28  N         -6.0130  -15.2710   13.8540 N.pl3   1  LIG1       -0.2330
     29  N         -7.9040  -14.8810   12.6370 N.pl3   1  LIG1       -0.2330
     30  H         -5.3630  -15.0730   14.5660 H       1  LIG1        0.1740
     31  H         -5.8800  -16.0520   13.2690 H       1  LIG1        0.1740
     32  H         -8.7210  -14.3820   12.4060 H       1  LIG1        0.1740
     33  H         -7.6570  -15.6860   12.1260 H       1  LIG1        0.1740
@<TRIPOS>BOND
     1    33    29    1
     2    32    29    1
     3    29    27    1
     4    31    28    1
     5    27    28    1
     6    27    26    2
     7    28    30    1
     8    26    23    1
     9    24    23   ar
    10    24    25   ar
    11    23    22   ar
    12    25    20   ar
    13    22    21   ar
    14    20    21   ar
    15    20    18    1
    16    14    13    2
    17     3     4   ar
    18     3     2   ar
    19    17    15    1
    20    13    15   am
    21    13    12    1
    22    15    16    1
    23     4     5   ar
    24     1    18    1
    25     1     2    1
    26    12    11    1
    27    18    19    2
    28     2     7   ar
    29    11     9    1
    30     5     8    1
    31     5     6   ar
    32     8     9    1
    33     7     6   ar
    34     9    10    2
@<TRIPOS>MOLECULE
./../dock_file/temp/5d5b8a25041b0e88f5bdd75f41f2935b/Camostat_Ligand_CID_2536:hmTMPRSS11_B:20230418100831/Camostat_Ligand_CID_2536:hmTMPRSS11_B_out_4.pdbqt
 33 34 0 0 0
SMALL
GASTEIGER

@<TRIPOS>ATOM
      1  O         -0.9400  -16.0340   21.2560 O.3     1  LIG1       -0.2750
      2  C         -0.2260  -17.1900   21.1780 C.ar    1  LIG1        0.0790
      3  C         -0.5920  -18.1760   20.2620 C.ar    1  LIG1        0.0380
      4  C          0.1400  -19.3600   20.1820 C.ar    1  LIG1        0.0100
      5  C          1.2400  -19.5580   21.0170 C.ar    1  LIG1       -0.0490
      6  C          1.6070  -18.5720   21.9330 C.ar    1  LIG1        0.0100
      7  C          0.8740  -17.3870   22.0130 C.ar    1  LIG1        0.0380
      8  C          2.0320  -20.8370   20.9310 C.3     1  LIG1        0.1490
      9  C          2.4400  -21.1830   19.5180 C.2     1  LIG1        0.2630
     10  O          1.9950  -22.1130   18.8600 O.2     1  LIG1       -0.2650
     11  O          3.3890  -20.2900   19.0820 O.3     1  LIG1       -0.3120
     12  C          3.3140  -19.9110   17.7240 C.3     1  LIG1        0.2810
     13  C          2.6220  -18.5700   17.6070 C.2     1  LIG1        0.2430
     14  O          3.2120  -17.5610   18.0010 O.2     1  LIG1       -0.2710
     15  N          1.3450  -18.5530   17.0440 N.am    1  LIG1       -0.3590
     16  C          0.6200  -19.7230   16.5520 C.3     1  LIG1        0.1520
     17  C          0.6420  -17.2840   16.9020 C.3     1  LIG1        0.1520
     18  C         -2.3190  -16.1990   21.1000 C.2     1  LIG1        0.2980
     19  O         -3.0370  -16.8940   21.8020 O.2     1  LIG1       -0.2590
     20  C         -2.8230  -15.4220   19.9400 C.ar    1  LIG1        0.0400
     21  C         -4.1710  -15.0740   19.8660 C.ar    1  LIG1        0.0200
     22  C         -4.6440  -14.3440   18.7760 C.ar    1  LIG1        0.0330
     23  C         -3.7690  -13.9610   17.7590 C.ar    1  LIG1        0.0750
     24  C         -2.4200  -14.3090   17.8330 C.ar    1  LIG1        0.0330
     25  C         -1.9470  -15.0400   18.9230 C.ar    1  LIG1        0.0200
     26  N         -4.2440  -13.2290   16.6660 N.pl3   1  LIG1       -0.0660
     27  C         -4.3560  -11.9270   16.7760 C.cat   1  LIG1        0.6920
     28  N         -4.0540  -11.1530   17.8760 N.pl3   1  LIG1       -0.2330
     29  N         -4.8180  -11.1700   15.7250 N.pl3   1  LIG1       -0.2330
     30  H         -3.7130  -11.5760   18.6960 H       1  LIG1        0.1740
     31  H         -4.1800  -10.1770   17.8400 H       1  LIG1        0.1740
     32  H         -5.0690  -11.6050   14.8780 H       1  LIG1        0.1740
     33  H         -4.8970  -10.1930   15.8200 H       1  LIG1        0.1740
@<TRIPOS>BOND
     1    32    29    1
     2    29    33    1
     3    29    27    1
     4    16    15    1
     5    26    27    2
     6    26    23    1
     7    27    28    1
     8    17    15    1
     9    15    13   am
    10    13    12    1
    11    13    14    2
    12    12    11    1
    13    23    24   ar
    14    23    22   ar
    15    24    25   ar
    16    31    28    1
    17    28    30    1
    18    22    21   ar
    19    10     9    2
    20    25    20   ar
    21    11     9    1
    22     9     8    1
    23    21    20   ar
    24    20    18    1
    25     4     3   ar
    26     4     5   ar
    27     3     2   ar
    28     8     5    1
    29     5     6   ar
    30    18     1    1
    31    18    19    2
    32     2     1    1
    33     2     7   ar
    34     6     7   ar
@<TRIPOS>MOLECULE
./../dock_file/temp/5d5b8a25041b0e88f5bdd75f41f2935b/Camostat_Ligand_CID_2536:hmTMPRSS11_B:20230418100831/Camostat_Ligand_CID_2536:hmTMPRSS11_B_out_4.pdbqt
 33 34 0 0 0
SMALL
GASTEIGER

@<TRIPOS>ATOM
      1  O         -1.0400  -14.2190   19.6590 O.3     1  LIG1       -0.2750
      2  C         -0.7510  -15.4560   20.1490 C.ar    1  LIG1        0.0790
      3  C         -1.6070  -16.5270   19.8890 C.ar    1  LIG1        0.0380
      4  C         -1.3120  -17.7940   20.3900 C.ar    1  LIG1        0.0100
      5  C         -0.1590  -17.9910   21.1520 C.ar    1  LIG1       -0.0490
      6  C          0.6970  -16.9210   21.4120 C.ar    1  LIG1        0.0100
      7  C          0.4010  -15.6530   20.9100 C.ar    1  LIG1        0.0380
      8  C          0.1610  -19.3600   21.6940 C.3     1  LIG1        0.1490
      9  C          0.7230  -20.2920   20.6460 C.2     1  LIG1        0.2630
     10  O          0.1800  -21.3090   20.2370 O.2     1  LIG1       -0.2650
     11  O          1.9420  -19.8210   20.2200 O.3     1  LIG1       -0.3120
     12  C          2.1770  -19.8690   18.8280 C.3     1  LIG1        0.2810
     13  C          2.0030  -18.4860   18.2350 C.2     1  LIG1        0.2430
     14  O          2.8960  -17.6510   18.4030 O.2     1  LIG1       -0.2710
     15  N          0.8330  -18.2380   17.5160 N.am    1  LIG1       -0.3590
     16  C         -0.2390  -19.2040   17.2830 C.3     1  LIG1        0.1520
     17  C          0.6240  -16.9260   16.9190 C.3     1  LIG1        0.1520
     18  C         -2.3280  -13.7690   19.9590 C.2     1  LIG1        0.2980
     19  O         -2.7890  -13.6220   21.0800 O.2     1  LIG1       -0.2590
     20  C         -3.1000  -13.4950   18.7200 C.ar    1  LIG1        0.0400
     21  C         -4.4790  -13.2980   18.7880 C.ar    1  LIG1        0.0200
     22  C         -5.2040  -13.0410   17.6240 C.ar    1  LIG1        0.0330
     23  C         -4.5510  -12.9810   16.3940 C.ar    1  LIG1        0.0750
     24  C         -3.1720  -13.1780   16.3250 C.ar    1  LIG1        0.0330
     25  C         -2.4460  -13.4360   17.4890 C.ar    1  LIG1        0.0200
     26  N         -5.2790  -12.7230   15.2270 N.pl3   1  LIG1       -0.0660
     27  C         -5.7770  -13.7320   14.5540 C.cat   1  LIG1        0.6920
     28  N         -5.6710  -15.0720   14.8590 N.pl3   1  LIG1       -0.2330
     29  N         -6.4980  -13.5210   13.4030 N.pl3   1  LIG1       -0.2330
     30  H         -5.1770  -15.3570   15.6610 H       1  LIG1        0.1740
     31  H         -6.0890  -15.7440   14.2730 H       1  LIG1        0.1740
     32  H         -6.6470  -12.6050   13.0760 H       1  LIG1        0.1740
     33  H         -6.8670  -14.2880   12.9060 H       1  LIG1        0.1740
@<TRIPOS>BOND
     1    33    29    1
     2    32    29    1
     3    29    27    1
     4    31    28    1
     5    27    28    1
     6    27    26    2
     7    28    30    1
     8    26    23    1
     9    24    23   ar
    10    24    25   ar
    11    23    22   ar
    12    17    15    1
    13    16    15    1
    14    25    20   ar
    15    15    13   am
    16    22    21   ar
    17    13    14    2
    18    13    12    1
    19    20    21   ar
    20    20    18    1
    21    12    11    1
    22     1    18    1
    23     1     2    1
    24     3     2   ar
    25     3     4   ar
    26    18    19    2
    27     2     7   ar
    28    11     9    1
    29    10     9    2
    30     4     5   ar
    31     9     8    1
    32     7     6   ar
    33     5     6   ar
    34     5     8    1
@<TRIPOS>MOLECULE
./../dock_file/temp/5d5b8a25041b0e88f5bdd75f41f2935b/Camostat_Ligand_CID_2536:hmTMPRSS11_B:20230418100831/Camostat_Ligand_CID_2536:hmTMPRSS11_B_out_4.pdbqt
 33 34 0 0 0
SMALL
GASTEIGER

@<TRIPOS>ATOM
      1  O         -0.0560  -16.1260   21.0210 O.3     1  LIG1       -0.2750
      2  C          0.6330  -17.1870   20.5200 C.ar    1  LIG1        0.0790
      3  C          1.1710  -17.1260   19.2340 C.ar    1  LIG1        0.0380
      4  C          1.8770  -18.2130   18.7210 C.ar    1  LIG1        0.0100
      5  C          2.0470  -19.3620   19.4940 C.ar    1  LIG1       -0.0490
      6  C          1.5090  -19.4230   20.7800 C.ar    1  LIG1        0.0100
      7  C          0.8020  -18.3350   21.2930 C.ar    1  LIG1        0.0380
      8  C          2.8100  -20.5380   18.9400 C.3     1  LIG1        0.1490
      9  C          2.0660  -21.2580   17.8400 C.2     1  LIG1        0.2630
     10  O          0.9230  -21.6860   17.9210 O.2     1  LIG1       -0.2650
     11  O          2.8710  -21.3580   16.7300 O.3     1  LIG1       -0.3120
     12  C          2.9140  -20.2270   15.8860 C.3     1  LIG1        0.2810
     13  C          2.1250  -20.5050   14.6230 C.2     1  LIG1        0.2430
     14  O          2.6330  -21.2130   13.7500 O.2     1  LIG1       -0.2710
     15  N          0.8510  -19.9440   14.5250 N.am    1  LIG1       -0.3590
     16  C          0.2100  -19.1140   15.5430 C.3     1  LIG1        0.1520
     17  C          0.0500  -20.1900   13.3330 C.3     1  LIG1        0.1520
     18  C         -1.4220  -16.1380   20.7280 C.2     1  LIG1        0.2980
     19  O         -2.2390  -16.9310   21.1710 O.2     1  LIG1       -0.2590
     20  C         -1.7750  -15.0540   19.7760 C.ar    1  LIG1        0.0400
     21  C         -2.0930  -15.3640   18.4540 C.ar    1  LIG1        0.0200
     22  C         -2.4250  -14.3460   17.5600 C.ar    1  LIG1        0.0330
     23  C         -2.4390  -13.0180   17.9880 C.ar    1  LIG1        0.0750
     24  C         -2.1210  -12.7080   19.3100 C.ar    1  LIG1        0.0330
     25  C         -1.7890  -13.7260   20.2040 C.ar    1  LIG1        0.0200
     26  N         -2.7720  -11.9980   17.0910 N.pl3   1  LIG1       -0.0660
     27  C         -4.0300  -11.6460   16.9700 C.cat   1  LIG1        0.6920
     28  N         -5.1130  -12.1740   17.6400 N.pl3   1  LIG1       -0.2330
     29  N         -4.3990  -10.6470   16.1000 N.pl3   1  LIG1       -0.2330
     30  H         -4.9820  -12.8990   18.2920 H       1  LIG1        0.1740
     31  H         -6.0170  -11.8270   17.4630 H       1  LIG1        0.1740
     32  H         -3.7170  -10.1870   15.5610 H       1  LIG1        0.1740
     33  H         -5.3470  -10.3920   16.0180 H       1  LIG1        0.1740
@<TRIPOS>BOND
     1    17    15    1
     2    14    13    2
     3    15    13   am
     4    15    16    1
     5    13    12    1
     6    32    29    1
     7    12    11    1
     8    33    29    1
     9    29    27    1
    10    11     9    1
    11    27    26    2
    12    27    28    1
    13    26    23    1
    14    31    28    1
    15    22    23   ar
    16    22    21   ar
    17    28    30    1
    18     9    10    2
    19     9     8    1
    20    23    24   ar
    21    21    20   ar
    22     4     3   ar
    23     4     5   ar
    24     8     5    1
    25     3     2   ar
    26    24    25   ar
    27     5     6   ar
    28    20    25   ar
    29    20    18    1
    30     2     1    1
    31     2     7   ar
    32    18     1    1
    33    18    19    2
    34     6     7   ar
@<TRIPOS>MOLECULE
./../dock_file/temp/5d5b8a25041b0e88f5bdd75f41f2935b/Camostat_Ligand_CID_2536:hmTMPRSS11_B:20230418100831/Camostat_Ligand_CID_2536:hmTMPRSS11_B_out_4.pdbqt
 33 34 0 0 0
SMALL
GASTEIGER

@<TRIPOS>ATOM
      1  O         -2.2720  -12.6750   18.6150 O.3     1  LIG1       -0.2750
      2  C         -2.4100  -13.8670   19.2560 C.ar    1  LIG1        0.0790
      3  C         -2.1750  -15.0600   18.5710 C.ar    1  LIG1        0.0380
      4  C         -2.3150  -16.2810   19.2290 C.ar    1  LIG1        0.0100
      5  C         -2.6900  -16.3120   20.5720 C.ar    1  LIG1       -0.0490
      6  C         -2.9250  -15.1190   21.2570 C.ar    1  LIG1        0.0100
      7  C         -2.7840  -13.8970   20.6000 C.ar    1  LIG1        0.0380
      8  C         -2.8420  -17.6310   21.2830 C.3     1  LIG1        0.1490
      9  C         -1.5680  -18.4430   21.2980 C.2     1  LIG1        0.2630
     10  O         -1.4500  -19.5850   20.8780 O.2     1  LIG1       -0.2650
     11  O         -0.5560  -17.6980   21.8560 O.3     1  LIG1       -0.3120
     12  C          0.7580  -18.1690   21.6410 C.3     1  LIG1        0.2810
     13  C          1.2980  -17.5980   20.3470 C.2     1  LIG1        0.2430
     14  O          1.3150  -16.3730   20.2010 O.2     1  LIG1       -0.2710
     15  N          1.7590  -18.5020   19.3890 N.am    1  LIG1       -0.3590
     16  C          1.7690  -19.9560   19.5320 C.3     1  LIG1        0.1520
     17  C          2.2970  -17.9990   18.1310 C.3     1  LIG1        0.1520
     18  C         -3.4140  -11.8700   18.6470 C.2     1  LIG1        0.2980
     19  O         -3.6380  -10.9820   19.4560 O.2     1  LIG1       -0.2590
     20  C         -4.3600  -12.2400   17.5630 C.ar    1  LIG1        0.0400
     21  C         -4.0840  -11.8820   16.2450 C.ar    1  LIG1        0.0200
     22  C         -4.9720  -12.2300   15.2270 C.ar    1  LIG1        0.0330
     23  C         -6.1370  -12.9350   15.5280 C.ar    1  LIG1        0.0750
     24  C         -6.4140  -13.2930   16.8470 C.ar    1  LIG1        0.0330
     25  C         -5.5260  -12.9450   17.8650 C.ar    1  LIG1        0.0200
     26  N         -7.0280  -13.2830   14.5070 N.pl3   1  LIG1       -0.0660
     27  C         -6.8480  -14.4150   13.8680 C.cat   1  LIG1        0.6920
     28  N         -5.8530  -15.3440   14.0810 N.pl3   1  LIG1       -0.2330
     29  N         -7.7010  -14.7940   12.8590 N.pl3   1  LIG1       -0.2330
     30  H         -5.1760  -15.1900   14.7780 H       1  LIG1        0.1740
     31  H         -5.8200  -16.1630   13.5330 H       1  LIG1        0.1740
     32  H         -8.4570  -14.2150   12.6090 H       1  LIG1        0.1740
     33  H         -7.5560  -15.6460   12.3870 H       1  LIG1        0.1740
@<TRIPOS>BOND
     1    33    29    1
     2    32    29    1
     3    29    27    1
     4    31    28    1
     5    27    28    1
     6    27    26    2
     7    28    30    1
     8    26    23    1
     9    22    23   ar
    10    22    21   ar
    11    23    24   ar
    12    21    20   ar
    13    24    25   ar
    14    20    25   ar
    15    20    18    1
    16    17    15    1
    17     3     4   ar
    18     3     2   ar
    19     1    18    1
    20     1     2    1
    21    18    19    2
    22     4     5   ar
    23     2     7   ar
    24    15    16    1
    25    15    13   am
    26    14    13    2
    27    13    12    1
    28     5     6   ar
    29     5     8    1
    30     7     6   ar
    31    10     9    2
    32     8     9    1
    33     9    11    1
    34    12    11    1
@<TRIPOS>MOLECULE
./../dock_file/temp/5d5b8a25041b0e88f5bdd75f41f2935b/Camostat_Ligand_CID_2536:hmTMPRSS11_B:20230418100831/Camostat_Ligand_CID_2536:hmTMPRSS11_B_out_4.pdbqt
 33 34 0 0 0
SMALL
GASTEIGER

@<TRIPOS>ATOM
      1  O         -1.4450  -13.6550   19.4740 O.3     1  LIG1       -0.2750
      2  C         -2.3050  -13.2610   18.4960 C.ar    1  LIG1        0.0790
      3  C         -3.1390  -12.1620   18.7010 C.ar    1  LIG1        0.0380
      4  C         -4.0200  -11.7580   17.6980 C.ar    1  LIG1        0.0100
      5  C         -4.0670  -12.4530   16.4900 C.ar    1  LIG1       -0.0490
      6  C         -3.2330  -13.5530   16.2850 C.ar    1  LIG1        0.0100
      7  C         -2.3520  -13.9560   17.2880 C.ar    1  LIG1        0.0380
      8  C         -5.0190  -12.0180   15.4060 C.3     1  LIG1        0.1490
      9  C         -6.2630  -12.8730   15.3350 C.2     1  LIG1        0.2630
     10  O         -6.6180  -13.5280   14.3660 O.2     1  LIG1       -0.2650
     11  O         -6.9360  -12.8030   16.5320 O.3     1  LIG1       -0.3120
     12  C         -7.4640  -14.0170   17.0230 C.3     1  LIG1        0.2810
     13  C         -6.4940  -14.6320   18.0100 C.2     1  LIG1        0.2430
     14  O         -6.3340  -14.0840   19.1050 O.2     1  LIG1       -0.2710
     15  N         -5.8380  -15.8010   17.6230 N.am    1  LIG1       -0.3590
     16  C         -6.0120  -16.4870   16.3450 C.3     1  LIG1        0.1520
     17  C         -4.9010  -16.4340   18.5430 C.3     1  LIG1        0.1520
     18  C         -1.8670  -14.7760   20.1940 C.2     1  LIG1        0.2980
     19  O         -2.8450  -14.8270   20.9250 O.2     1  LIG1       -0.2590
     20  C         -0.9560  -15.9270   19.9740 C.ar    1  LIG1        0.0400
     21  C         -1.3050  -16.9310   19.0710 C.ar    1  LIG1        0.0200
     22  C         -0.4480  -18.0120   18.8640 C.ar    1  LIG1        0.0330
     23  C          0.7570  -18.0910   19.5610 C.ar    1  LIG1        0.0750
     24  C          1.1070  -17.0870   20.4650 C.ar    1  LIG1        0.0330
     25  C          0.2510  -16.0060   20.6710 C.ar    1  LIG1        0.0200
     26  N          1.6160  -19.1750   19.3540 N.pl3   1  LIG1       -0.0660
     27  C          2.5060  -19.1040   18.3930 C.cat   1  LIG1        0.6920
     28  N          2.7150  -18.0550   17.5240 N.pl3   1  LIG1       -0.2330
     29  N          3.3690  -20.1480   18.1570 N.pl3   1  LIG1       -0.2330
     30  H          2.1600  -17.2450   17.5890 H       1  LIG1        0.1740
     31  H          3.4180  -18.1170   16.8380 H       1  LIG1        0.1740
     32  H          3.3240  -20.9600   18.7110 H       1  LIG1        0.1740
     33  H          4.0340  -20.0830   17.4330 H       1  LIG1        0.1740
@<TRIPOS>BOND
     1    10     9    2
     2     9     8    1
     3     9    11    1
     4     8     5    1
     5     6     5   ar
     6     6     7   ar
     7    16    15    1
     8     5     4   ar
     9    11    12    1
    10    31    28    1
    11    12    13    1
    12     7     2   ar
    13    33    29    1
    14    28    30    1
    15    28    27    1
    16    15    13   am
    17    15    17    1
    18     4     3   ar
    19    13    14    2
    20    29    27    1
    21    29    32    1
    22    27    26    2
    23     2     3   ar
    24     2     1    1
    25    22    21   ar
    26    22    23   ar
    27    21    20   ar
    28    26    23    1
    29     1    18    1
    30    23    24   ar
    31    20    18    1
    32    20    25   ar
    33    18    19    2
    34    24    25   ar
@<TRIPOS>MOLECULE
./../dock_file/temp/5d5b8a25041b0e88f5bdd75f41f2935b/Camostat_Ligand_CID_2536:hmTMPRSS11_B:20230418100831/Camostat_Ligand_CID_2536:hmTMPRSS11_B_out_4.pdbqt
 33 34 0 0 0
SMALL
GASTEIGER

@<TRIPOS>ATOM
      1  O          9.6910   -7.9260    4.1380 O.3     1  LIG1       -0.2750
      2  C          8.5160   -8.1960    3.5070 C.ar    1  LIG1        0.0790
      3  C          7.6710   -7.1520    3.1280 C.ar    1  LIG1        0.0380
      4  C          6.4670   -7.4290    2.4820 C.ar    1  LIG1        0.0100
      5  C          6.1080   -8.7500    2.2120 C.ar    1  LIG1       -0.0490
      6  C          6.9530   -9.7930    2.5910 C.ar    1  LIG1        0.0100
      7  C          8.1570   -9.5160    3.2380 C.ar    1  LIG1        0.0380
      8  C          4.8070   -9.0500    1.5130 C.3     1  LIG1        0.1490
      9  C          3.7710   -9.6530    2.4320 C.2     1  LIG1        0.2630
     10  O          3.5490  -10.8490    2.5610 O.2     1  LIG1       -0.2650
     11  O          3.1130   -8.6500    3.1040 O.3     1  LIG1       -0.3120
     12  C          3.0220   -8.7930    4.5050 C.3     1  LIG1        0.2810
     13  C          1.5850   -9.0730    4.8960 C.2     1  LIG1        0.2430
     14  O          0.7110   -8.2710    4.5570 O.2     1  LIG1       -0.2710
     15  N          1.3320  -10.2400    5.6190 N.am    1  LIG1       -0.3590
     16  C          2.3370  -11.2190    6.0250 C.3     1  LIG1        0.1520
     17  C         -0.0360  -10.5560    6.0100 C.3     1  LIG1        0.1520
     18  C         10.6310   -7.2630    3.3440 C.2     1  LIG1        0.2980
     19  O         11.0740   -7.6650    2.2780 O.2     1  LIG1       -0.2590
     20  C         11.0550   -5.9850    3.9700 C.ar    1  LIG1        0.0400
     21  C         11.5420   -5.9760    5.2760 C.ar    1  LIG1        0.0200
     22  C         11.9410   -4.7760    5.8640 C.ar    1  LIG1        0.0330
     23  C         11.8520   -3.5840    5.1460 C.ar    1  LIG1        0.0750
     24  C         11.3640   -3.5920    3.8390 C.ar    1  LIG1        0.0330
     25  C         10.9660   -4.7930    3.2510 C.ar    1  LIG1        0.0200
     26  N         12.2510   -2.3800    5.7350 N.pl3   1  LIG1       -0.0660
     27  C         13.5300   -2.0920    5.7840 C.cat   1  LIG1        0.6920
     28  N         14.5760   -2.8530    5.3090 N.pl3   1  LIG1       -0.2330
     29  N         13.9640   -0.9180    6.3540 N.pl3   1  LIG1       -0.2330
     30  H         14.3980   -3.7190    4.8780 H       1  LIG1        0.1740
     31  H         15.5020   -2.5310    5.4040 H       1  LIG1        0.1740
     32  H         13.3130   -0.2840    6.7320 H       1  LIG1        0.1740
     33  H         14.9270   -0.7130    6.3840 H       1  LIG1        0.1740
@<TRIPOS>BOND
     1     8     5    1
     2     8     9    1
     3     5     4   ar
     4     5     6   ar
     5    19    18    2
     6     9    10    2
     7     9    11    1
     8     4     3   ar
     9     6     7   ar
    10    11    12    1
    11     3     2   ar
    12     7     2   ar
    13    25    24   ar
    14    25    20   ar
    15    18    20    1
    16    18     1    1
    17     2     1    1
    18    24    23   ar
    19    20    21   ar
    20    12    13    1
    21    14    13    2
    22    30    28    1
    23    13    15   am
    24    23    26    1
    25    23    22   ar
    26    21    22   ar
    27    28    31    1
    28    28    27    1
    29    15    17    1
    30    15    16    1
    31    26    27    2
    32    27    29    1
    33    29    33    1
    34    29    32    1
@<TRIPOS>MOLECULE
./../dock_file/temp/5d5b8a25041b0e88f5bdd75f41f2935b/Camostat_Ligand_CID_2536:hmTMPRSS11_B:20230418100831/Camostat_Ligand_CID_2536:hmTMPRSS11_B_out_4.pdbqt
 33 34 0 0 0
SMALL
GASTEIGER

@<TRIPOS>ATOM
      1  O          1.0390  -11.6630    3.0540 O.3     1  LIG1       -0.2750
      2  C          2.2970  -11.2300    2.7700 C.ar    1  LIG1        0.0790
      3  C          2.5050  -10.3200    1.7330 C.ar    1  LIG1        0.0380
      4  C          3.7940   -9.8760    1.4430 C.ar    1  LIG1        0.0100
      5  C          4.8770  -10.3410    2.1900 C.ar    1  LIG1       -0.0490
      6  C          4.6690  -11.2500    3.2270 C.ar    1  LIG1        0.0100
      7  C          3.3790  -11.6940    3.5180 C.ar    1  LIG1        0.0380
      8  C          6.2710   -9.8610    1.8770 C.3     1  LIG1        0.1490
      9  C          6.6760   -8.6560    2.6920 C.2     1  LIG1        0.2630
     10  O          6.3620   -7.4990    2.4510 O.2     1  LIG1       -0.2650
     11  O          7.4550   -9.0590    3.7510 O.3     1  LIG1       -0.3120
     12  C          8.7240   -9.5880    3.4280 C.3     1  LIG1        0.2810
     13  C          8.9320  -10.8960    4.1620 C.2     1  LIG1        0.2430
     14  O          8.6170  -10.9650    5.3530 O.2     1  LIG1       -0.2710
     15  N          9.4670  -11.9620    3.4370 N.am    1  LIG1       -0.3590
     16  C          9.8370  -11.9230    2.0240 C.3     1  LIG1        0.1520
     17  C          9.6780  -13.2430    4.0980 C.3     1  LIG1        0.1520
     18  C          0.1050  -10.6390    3.2350 C.2     1  LIG1        0.2980
     19  O         -0.7060  -10.2600    2.4040 O.2     1  LIG1       -0.2590
     20  C          0.2260  -10.0370    4.5870 C.ar    1  LIG1        0.0400
     21  C         -0.5470  -10.5250    5.6390 C.ar    1  LIG1        0.0200
     22  C         -0.4320   -9.9590    6.9090 C.ar    1  LIG1        0.0330
     23  C          0.4540   -8.9050    7.1260 C.ar    1  LIG1        0.0750
     24  C          1.2280   -8.4160    6.0730 C.ar    1  LIG1        0.0330
     25  C          1.1130   -8.9820    4.8030 C.ar    1  LIG1        0.0200
     26  N          0.5680   -8.3380    8.4000 N.pl3   1  LIG1       -0.0660
     27  C          1.1830   -9.0120    9.3420 C.cat   1  LIG1        0.6920
     28  N          1.7550  -10.2620    9.2350 N.pl3   1  LIG1       -0.2330
     29  N          1.3170   -8.4900   10.6070 N.pl3   1  LIG1       -0.2330
     30  H          1.7270  -10.7450    8.3790 H       1  LIG1        0.1740
     31  H          2.1920  -10.6710   10.0180 H       1  LIG1        0.1740
     32  H          0.9500   -7.6010   10.8130 H       1  LIG1        0.1740
     33  H          1.7810   -9.0070   11.3050 H       1  LIG1        0.1740
@<TRIPOS>BOND
     1     4     3   ar
     2     4     5   ar
     3     3     2   ar
     4     8     5    1
     5     8     9    1
     6    16    15    1
     7     5     6   ar
     8    19    18    2
     9    10     9    2
    10     9    11    1
    11     2     1    1
    12     2     7   ar
    13     1    18    1
    14     6     7   ar
    15    18    20    1
    16    12    11    1
    17    12    13    1
    18    15    17    1
    19    15    13   am
    20    13    14    2
    21    20    25   ar
    22    20    21   ar
    23    25    24   ar
    24    21    22   ar
    25    24    23   ar
    26    22    23   ar
    27    23    26    1
    28    30    28    1
    29    26    27    2
    30    28    27    1
    31    28    31    1
    32    27    29    1
    33    29    32    1
    34    29    33    1
@<TRIPOS>MOLECULE
./../dock_file/temp/5d5b8a25041b0e88f5bdd75f41f2935b/Camostat_Ligand_CID_2536:hmTMPRSS11_B:20230418100831/Camostat_Ligand_CID_2536:hmTMPRSS11_B_out_4.pdbqt
 33 34 0 0 0
SMALL
GASTEIGER

@<TRIPOS>ATOM
      1  O         -3.0140  -12.8190   19.5860 O.3     1  LIG1       -0.2750
      2  C         -2.5500  -13.9950   20.0910 C.ar    1  LIG1        0.0790
      3  C         -3.4170  -14.8580   20.7610 C.ar    1  LIG1        0.0380
      4  C         -2.9410  -16.0620   21.2780 C.ar    1  LIG1        0.0100
      5  C         -1.5970  -16.4050   21.1250 C.ar    1  LIG1       -0.0490
      6  C         -0.7300  -15.5410   20.4560 C.ar    1  LIG1        0.0100
      7  C         -1.2060  -14.3370   19.9380 C.ar    1  LIG1        0.0380
      8  C         -1.0830  -17.7060   21.6840 C.3     1  LIG1        0.1490
      9  C          0.3900  -17.9180   21.4220 C.2     1  LIG1        0.2630
     10  O          1.3030  -17.4630   22.0980 O.2     1  LIG1       -0.2650
     11  O          0.5490  -18.7040   20.3050 O.3     1  LIG1       -0.3120
     12  C          1.5330  -18.2850   19.3830 C.3     1  LIG1        0.2810
     13  C          1.3510  -19.0250   18.0740 C.2     1  LIG1        0.2430
     14  O          1.6950  -20.2080   18.0070 O.2     1  LIG1       -0.2710
     15  N          0.7890  -18.3180   17.0100 N.am    1  LIG1       -0.3590
     16  C          0.3550  -16.9230   17.0540 C.3     1  LIG1        0.1520
     17  C          0.5860  -18.9890   15.7320 C.3     1  LIG1        0.1520
     18  C         -2.4830  -12.4800   18.3390 C.2     1  LIG1        0.2980
     19  O         -1.3980  -11.9540   18.1460 O.2     1  LIG1       -0.2590
     20  C         -3.4240  -12.8280   17.2450 C.ar    1  LIG1        0.0400
     21  C         -3.9720  -11.8220   16.4490 C.ar    1  LIG1        0.0200
     22  C         -4.8550  -12.1500   15.4210 C.ar    1  LIG1        0.0330
     23  C         -5.1920  -13.4830   15.1880 C.ar    1  LIG1        0.0750
     24  C         -4.6450  -14.4900   15.9830 C.ar    1  LIG1        0.0330
     25  C         -3.7610  -14.1630   17.0120 C.ar    1  LIG1        0.0200
     26  N         -6.0780  -13.8110   14.1560 N.pl3   1  LIG1       -0.0660
     27  C         -7.3600  -13.8880   14.4220 C.cat   1  LIG1        0.6920
     28  N         -7.9740  -13.6780   15.6380 N.pl3   1  LIG1       -0.2330
     29  N         -8.2640  -14.2070   13.4360 N.pl3   1  LIG1       -0.2330
     30  H         -7.4360  -13.4430   16.4270 H       1  LIG1        0.1740
     31  H         -8.9520  -13.7660   15.7170 H       1  LIG1        0.1740
     32  H         -7.9520  -14.3800   12.5200 H       1  LIG1        0.1740
     33  H         -9.2240  -14.2610   13.6490 H       1  LIG1        0.1740
@<TRIPOS>BOND
     1    32    29    1
     2    29    33    1
     3    29    27    1
     4    26    27    2
     5    26    23    1
     6    27    28    1
     7    23    22   ar
     8    23    24   ar
     9    22    21   ar
    10    28    31    1
    11    28    30    1
    12    17    15    1
    13    24    25   ar
    14    21    20   ar
    15    15    16    1
    16    15    13   am
    17    25    20   ar
    18    20    18    1
    19    14    13    2
    20    13    12    1
    21    19    18    2
    22    18     1    1
    23    12    11    1
    24     1     2    1
    25     7     2   ar
    26     7     6   ar
    27     2     3   ar
    28    11     9    1
    29     6     5   ar
    30     3     4   ar
    31     5     4   ar
    32     5     8    1
    33     9     8    1
    34     9    10    2
